C1_10a
 OpenBabel11182102372D

 39 43  0  0  0  0  0  0  0  0999 V2000
   24.1388  -19.4562    0.0000 C   0  0  0  0  0  0  0  0  0  0  0  0
   24.1388  -18.8065    0.0000 C   0  0  0  0  0  0  0  0  0  0  0  0
   23.5761  -18.4816    0.0000 C   0  0  0  0  0  0  0  0  0  0  0  0
   23.0134  -18.8065    0.0000 C   0  0  0  0  0  0  0  0  0  0  0  0
   23.0134  -19.4562    0.0000 C   0  0  0  0  0  0  0  0  0  0  0  0
   23.5761  -19.7811    0.0000 C   0  0  0  0  0  0  0  0  0  0  0  0
   22.4507  -18.4816    0.0000 O   0  0  0  0  0  0  0  0  0  0  0  0
   21.8880  -18.8065    0.0000 C   0  0  0  0  0  0  0  0  0  0  0  0
   21.8880  -19.4562    0.0000 C   0  0  0  0  0  0  0  0  0  0  0  0
   22.4507  -19.7811    0.0000 C   0  0  0  0  0  0  0  0  0  0  0  0
   21.3253  -18.4816    0.0000 O   0  0  0  0  0  0  0  0  0  0  0  0
   21.3253  -19.7811    0.0000 C   0  0  0  0  0  0  0  0  0  0  0  0
   20.7625  -19.4562    0.0000 N   0  0  0  0  0  0  0  0  0  0  0  0
   21.3253  -20.4309    0.0000 C   0  0  0  0  0  0  0  0  0  0  0  0
   20.1998  -19.7811    0.0000 N   0  0  0  0  0  0  0  0  0  0  0  0
   17.6638  -17.0427    0.0000 N   0  0  0  0  0  0  0  0  0  0  0  0
   17.1381  -16.6608    0.0000 C   0  0  0  0  0  0  0  0  0  0  0  0
   16.6125  -17.0427    0.0000 C   0  0  0  0  0  0  0  0  0  0  0  0
   16.8133  -17.6607    0.0000 S   0  0  0  0  0  0  0  0  0  0  0  0
   17.4630  -17.6607    0.0000 C   0  0  0  0  0  0  0  0  0  0  0  0
   15.9945  -16.8419    0.0000 N   0  0  0  0  0  0  0  0  0  0  0  0
   15.5351  -17.3014    0.0000 N   0  0  0  0  0  0  0  0  0  0  0  0
   14.9075  -17.1332    0.0000 C   0  0  0  0  0  0  0  0  0  0  0  0
   19.6371  -19.4562    0.0000 C   0  0  0  0  0  0  0  0  0  0  0  0
   19.5692  -18.8100    0.0000 N   0  0  0  0  0  0  0  0  0  0  0  0
   18.9337  -18.6749    0.0000 C   0  0  0  0  0  0  0  0  0  0  0  0
   18.6088  -19.2376    0.0000 C   0  0  0  0  0  0  0  0  0  0  0  0
   19.0435  -19.7205    0.0000 S   0  0  0  0  0  0  0  0  0  0  0  0
   19.1093  -18.0195    0.0000 C   0  0  0  0  0  0  0  0  0  0  0  0
   17.9626  -19.3056    0.0000 C   0  0  0  0  0  0  0  0  0  0  0  0
   17.5807  -18.7799    0.0000 N   0  0  0  0  0  0  0  0  0  0  0  0
   17.6983  -19.8991    0.0000 C   0  0  0  0  0  0  0  0  0  0  0  0
   17.8449  -18.1863    0.0000 N   0  0  0  0  0  0  0  0  0  0  0  0
   17.1381  -16.0110    0.0000 O   0  0  0  0  0  0  0  0  0  0  0  0
   14.6939  -16.3363    0.0000 C   0  0  0  0  0  0  0  0  0  0  0  0
   13.8970  -16.1228    0.0000 C   0  0  0  0  0  0  0  0  0  0  0  0
   13.3137  -16.7061    0.0000 C   0  0  0  0  0  0  0  0  0  0  0  0
   13.5272  -17.5030    0.0000 C   0  0  0  0  0  0  0  0  0  0  0  0
   14.3241  -17.7166    0.0000 C   0  0  0  0  0  0  0  0  0  0  0  0
  1  2  2  0  0  0  0
  2  3  1  0  0  0  0
  3  4  2  0  0  0  0
  4  5  1  0  0  0  0
  4  7  1  0  0  0  0
  5  6  2  0  0  0  0
  6  1  1  0  0  0  0
  7  8  1  0  0  0  0
  8  9  1  0  0  0  0
  8 11  2  0  0  0  0
  9 10  2  0  0  0  0
  9 12  1  0  0  0  0
 10  5  1  0  0  0  0
 12 13  2  0  0  0  0
 12 14  1  0  0  0  0
 13 15  1  0  0  0  0
 15 24  1  0  0  0  0
 16 17  1  0  0  0  0
 17 18  1  0  0  0  0
 17 34  2  0  0  0  0
 18 19  1  0  0  0  0
 18 21  2  0  0  0  0
 19 20  1  0  0  0  0
 20 16  2  0  0  0  0
 21 22  1  0  0  0  0
 22 23  1  0  0  0  0
 23 35  2  0  0  0  0
 24 25  2  0  0  0  0
 25 26  1  0  0  0  0
 26 27  2  0  0  0  0
 26 29  1  0  0  0  0
 27 28  1  0  0  0  0
 27 30  1  0  0  0  0
 28 24  1  0  0  0  0
 30 31  2  0  0  0  0
 30 32  1  0  0  0  0
 31 33  1  0  0  0  0
 33 20  1  0  0  0  0
 35 36  1  0  0  0  0
 36 37  2  0  0  0  0
 37 38  1  0  0  0  0
 38 39  2  0  0  0  0
 39 23  1  0  0  0  0
M  END
>  <Name>
C1_10a

$$$$
C1_10b
 OpenBabel11182102372D

 40 44  0  0  0  0  0  0  0  0999 V2000
   12.5563  -22.8299    0.0000 C   0  0  0  0  0  0  0  0  0  0  0  0
   12.5563  -22.1802    0.0000 C   0  0  0  0  0  0  0  0  0  0  0  0
   11.9936  -21.8553    0.0000 C   0  0  0  0  0  0  0  0  0  0  0  0
   11.4309  -22.1802    0.0000 C   0  0  0  0  0  0  0  0  0  0  0  0
   11.4309  -22.8299    0.0000 C   0  0  0  0  0  0  0  0  0  0  0  0
   11.9936  -23.1548    0.0000 C   0  0  0  0  0  0  0  0  0  0  0  0
   10.8682  -21.8553    0.0000 O   0  0  0  0  0  0  0  0  0  0  0  0
   10.3055  -22.1802    0.0000 C   0  0  0  0  0  0  0  0  0  0  0  0
   10.3055  -22.8299    0.0000 C   0  0  0  0  0  0  0  0  0  0  0  0
   10.8682  -23.1548    0.0000 C   0  0  0  0  0  0  0  0  0  0  0  0
    9.7428  -21.8553    0.0000 O   0  0  0  0  0  0  0  0  0  0  0  0
    9.7428  -23.1548    0.0000 C   0  0  0  0  0  0  0  0  0  0  0  0
    9.1801  -22.8299    0.0000 N   0  0  0  0  0  0  0  0  0  0  0  0
    9.7428  -23.8046    0.0000 C   0  0  0  0  0  0  0  0  0  0  0  0
    8.6174  -23.1548    0.0000 N   0  0  0  0  0  0  0  0  0  0  0  0
    6.0814  -20.4164    0.0000 N   0  0  0  0  0  0  0  0  0  0  0  0
    5.5557  -20.0345    0.0000 C   0  0  0  0  0  0  0  0  0  0  0  0
    5.0300  -20.4164    0.0000 C   0  0  0  0  0  0  0  0  0  0  0  0
    5.2308  -21.0343    0.0000 S   0  0  0  0  0  0  0  0  0  0  0  0
    5.8806  -21.0343    0.0000 C   0  0  0  0  0  0  0  0  0  0  0  0
    4.4121  -20.2156    0.0000 N   0  0  0  0  0  0  0  0  0  0  0  0
    3.9526  -20.6750    0.0000 N   0  0  0  0  0  0  0  0  0  0  0  0
    3.3250  -20.5069    0.0000 C   0  0  0  0  0  0  0  0  0  0  0  0
    8.0547  -22.8299    0.0000 C   0  0  0  0  0  0  0  0  0  0  0  0
    7.9868  -22.1837    0.0000 N   0  0  0  0  0  0  0  0  0  0  0  0
    7.3512  -22.0486    0.0000 C   0  0  0  0  0  0  0  0  0  0  0  0
    7.0263  -22.6113    0.0000 C   0  0  0  0  0  0  0  0  0  0  0  0
    7.4611  -23.0942    0.0000 S   0  0  0  0  0  0  0  0  0  0  0  0
    7.5268  -21.3931    0.0000 C   0  0  0  0  0  0  0  0  0  0  0  0
    6.3801  -22.6793    0.0000 C   0  0  0  0  0  0  0  0  0  0  0  0
    5.9982  -22.1536    0.0000 N   0  0  0  0  0  0  0  0  0  0  0  0
    6.1158  -23.2728    0.0000 C   0  0  0  0  0  0  0  0  0  0  0  0
    6.2625  -21.5600    0.0000 N   0  0  0  0  0  0  0  0  0  0  0  0
    5.5557  -19.3847    0.0000 O   0  0  0  0  0  0  0  0  0  0  0  0
    3.1115  -19.7100    0.0000 C   0  0  0  0  0  0  0  0  0  0  0  0
    2.3146  -19.4965    0.0000 C   0  0  0  0  0  0  0  0  0  0  0  0
    1.7312  -20.0798    0.0000 C   0  0  0  0  0  0  0  0  0  0  0  0
    1.9447  -20.8767    0.0000 C   0  0  0  0  0  0  0  0  0  0  0  0
    2.7416  -21.0902    0.0000 C   0  0  0  0  0  0  0  0  0  0  0  0
    0.9343  -19.8663    0.0000 C   0  0  0  0  0  0  0  0  0  0  0  0
  1  2  2  0  0  0  0
  2  3  1  0  0  0  0
  3  4  2  0  0  0  0
  4  5  1  0  0  0  0
  4  7  1  0  0  0  0
  5  6  2  0  0  0  0
  6  1  1  0  0  0  0
  7  8  1  0  0  0  0
  8  9  1  0  0  0  0
  8 11  2  0  0  0  0
  9 10  2  0  0  0  0
  9 12  1  0  0  0  0
 10  5  1  0  0  0  0
 12 13  2  0  0  0  0
 12 14  1  0  0  0  0
 13 15  1  0  0  0  0
 15 24  1  0  0  0  0
 16 17  1  0  0  0  0
 17 18  1  0  0  0  0
 17 34  2  0  0  0  0
 18 19  1  0  0  0  0
 18 21  2  0  0  0  0
 19 20  1  0  0  0  0
 20 16  2  0  0  0  0
 21 22  1  0  0  0  0
 22 23  1  0  0  0  0
 23 35  2  0  0  0  0
 24 25  2  0  0  0  0
 25 26  1  0  0  0  0
 26 27  2  0  0  0  0
 26 29  1  0  0  0  0
 27 28  1  0  0  0  0
 27 30  1  0  0  0  0
 28 24  1  0  0  0  0
 30 31  2  0  0  0  0
 30 32  1  0  0  0  0
 31 33  1  0  0  0  0
 33 20  1  0  0  0  0
 35 36  1  0  0  0  0
 36 37  2  0  0  0  0
 37 38  1  0  0  0  0
 37 40  1  0  0  0  0
 38 39  2  0  0  0  0
 39 23  1  0  0  0  0
M  END
>  <Name>
C1_10b

$$$$
C1_10c
 OpenBabel11182102372D

 40 44  0  0  0  0  0  0  0  0999 V2000
   24.1659  -24.4245    0.0000 C   0  0  0  0  0  0  0  0  0  0  0  0
   24.1659  -23.7747    0.0000 C   0  0  0  0  0  0  0  0  0  0  0  0
   23.6032  -23.4499    0.0000 C   0  0  0  0  0  0  0  0  0  0  0  0
   23.0405  -23.7747    0.0000 C   0  0  0  0  0  0  0  0  0  0  0  0
   23.0405  -24.4245    0.0000 C   0  0  0  0  0  0  0  0  0  0  0  0
   23.6032  -24.7494    0.0000 C   0  0  0  0  0  0  0  0  0  0  0  0
   22.4778  -23.4499    0.0000 O   0  0  0  0  0  0  0  0  0  0  0  0
   21.9151  -23.7747    0.0000 C   0  0  0  0  0  0  0  0  0  0  0  0
   21.9151  -24.4245    0.0000 C   0  0  0  0  0  0  0  0  0  0  0  0
   22.4778  -24.7494    0.0000 C   0  0  0  0  0  0  0  0  0  0  0  0
   21.3524  -23.4499    0.0000 O   0  0  0  0  0  0  0  0  0  0  0  0
   21.3524  -24.7494    0.0000 C   0  0  0  0  0  0  0  0  0  0  0  0
   20.7897  -24.4245    0.0000 N   0  0  0  0  0  0  0  0  0  0  0  0
   21.3524  -25.3991    0.0000 C   0  0  0  0  0  0  0  0  0  0  0  0
   20.2270  -24.7494    0.0000 N   0  0  0  0  0  0  0  0  0  0  0  0
   17.6910  -22.0110    0.0000 N   0  0  0  0  0  0  0  0  0  0  0  0
   17.1653  -21.6290    0.0000 C   0  0  0  0  0  0  0  0  0  0  0  0
   16.6396  -22.0110    0.0000 C   0  0  0  0  0  0  0  0  0  0  0  0
   16.8404  -22.6289    0.0000 S   0  0  0  0  0  0  0  0  0  0  0  0
   17.4902  -22.6289    0.0000 C   0  0  0  0  0  0  0  0  0  0  0  0
   16.0217  -21.8102    0.0000 N   0  0  0  0  0  0  0  0  0  0  0  0
   15.5622  -22.2696    0.0000 N   0  0  0  0  0  0  0  0  0  0  0  0
   14.9346  -22.1015    0.0000 C   0  0  0  0  0  0  0  0  0  0  0  0
   19.6643  -24.4245    0.0000 C   0  0  0  0  0  0  0  0  0  0  0  0
   19.5964  -23.7783    0.0000 N   0  0  0  0  0  0  0  0  0  0  0  0
   18.9608  -23.6432    0.0000 C   0  0  0  0  0  0  0  0  0  0  0  0
   18.6359  -24.2059    0.0000 C   0  0  0  0  0  0  0  0  0  0  0  0
   19.0707  -24.6888    0.0000 S   0  0  0  0  0  0  0  0  0  0  0  0
   19.1364  -22.9877    0.0000 C   0  0  0  0  0  0  0  0  0  0  0  0
   17.9897  -24.2738    0.0000 C   0  0  0  0  0  0  0  0  0  0  0  0
   17.6078  -23.7482    0.0000 N   0  0  0  0  0  0  0  0  0  0  0  0
   17.7254  -24.8674    0.0000 C   0  0  0  0  0  0  0  0  0  0  0  0
   17.8721  -23.1546    0.0000 N   0  0  0  0  0  0  0  0  0  0  0  0
   17.1653  -20.9793    0.0000 O   0  0  0  0  0  0  0  0  0  0  0  0
   14.7211  -21.3046    0.0000 C   0  0  0  0  0  0  0  0  0  0  0  0
   13.9242  -21.0910    0.0000 C   0  0  0  0  0  0  0  0  0  0  0  0
   13.3408  -21.6744    0.0000 C   0  0  0  0  0  0  0  0  0  0  0  0
   13.5544  -22.4713    0.0000 C   0  0  0  0  0  0  0  0  0  0  0  0
   14.3512  -22.6848    0.0000 C   0  0  0  0  0  0  0  0  0  0  0  0
   12.5439  -21.4609    0.0000 Cl  0  0  0  0  0  0  0  0  0  0  0  0
  1  2  2  0  0  0  0
  2  3  1  0  0  0  0
  3  4  2  0  0  0  0
  4  5  1  0  0  0  0
  4  7  1  0  0  0  0
  5  6  2  0  0  0  0
  6  1  1  0  0  0  0
  7  8  1  0  0  0  0
  8  9  1  0  0  0  0
  8 11  2  0  0  0  0
  9 10  2  0  0  0  0
  9 12  1  0  0  0  0
 10  5  1  0  0  0  0
 12 13  2  0  0  0  0
 12 14  1  0  0  0  0
 13 15  1  0  0  0  0
 15 24  1  0  0  0  0
 16 17  1  0  0  0  0
 17 18  1  0  0  0  0
 17 34  2  0  0  0  0
 18 19  1  0  0  0  0
 18 21  2  0  0  0  0
 19 20  1  0  0  0  0
 20 16  2  0  0  0  0
 21 22  1  0  0  0  0
 22 23  1  0  0  0  0
 23 35  2  0  0  0  0
 24 25  2  0  0  0  0
 25 26  1  0  0  0  0
 26 27  2  0  0  0  0
 26 29  1  0  0  0  0
 27 28  1  0  0  0  0
 27 30  1  0  0  0  0
 28 24  1  0  0  0  0
 30 31  2  0  0  0  0
 30 32  1  0  0  0  0
 31 33  1  0  0  0  0
 33 20  1  0  0  0  0
 35 36  1  0  0  0  0
 36 37  2  0  0  0  0
 37 38  1  0  0  0  0
 37 40  1  0  0  0  0
 38 39  2  0  0  0  0
 39 23  1  0  0  0  0
M  END
>  <Name>
C1_10c

$$$$
C1_10d
 OpenBabel11182102372D

 40 44  0  0  0  0  0  0  0  0999 V2000
   11.7860  -28.0625    0.0000 C   0  0  0  0  0  0  0  0  0  0  0  0
   11.7860  -27.4127    0.0000 C   0  0  0  0  0  0  0  0  0  0  0  0
   11.2233  -27.0878    0.0000 C   0  0  0  0  0  0  0  0  0  0  0  0
   10.6606  -27.4127    0.0000 C   0  0  0  0  0  0  0  0  0  0  0  0
   10.6606  -28.0625    0.0000 C   0  0  0  0  0  0  0  0  0  0  0  0
   11.2233  -28.3873    0.0000 C   0  0  0  0  0  0  0  0  0  0  0  0
   10.0979  -27.0878    0.0000 O   0  0  0  0  0  0  0  0  0  0  0  0
    9.5352  -27.4127    0.0000 C   0  0  0  0  0  0  0  0  0  0  0  0
    9.5352  -28.0625    0.0000 C   0  0  0  0  0  0  0  0  0  0  0  0
   10.0979  -28.3873    0.0000 C   0  0  0  0  0  0  0  0  0  0  0  0
    8.9725  -27.0878    0.0000 O   0  0  0  0  0  0  0  0  0  0  0  0
    8.9725  -28.3873    0.0000 C   0  0  0  0  0  0  0  0  0  0  0  0
    8.4097  -28.0625    0.0000 N   0  0  0  0  0  0  0  0  0  0  0  0
    8.9725  -29.0371    0.0000 C   0  0  0  0  0  0  0  0  0  0  0  0
    7.8470  -28.3873    0.0000 N   0  0  0  0  0  0  0  0  0  0  0  0
    5.3110  -25.6489    0.0000 N   0  0  0  0  0  0  0  0  0  0  0  0
    4.7853  -25.2670    0.0000 C   0  0  0  0  0  0  0  0  0  0  0  0
    4.2597  -25.6489    0.0000 C   0  0  0  0  0  0  0  0  0  0  0  0
    4.4605  -26.2669    0.0000 S   0  0  0  0  0  0  0  0  0  0  0  0
    5.1102  -26.2669    0.0000 C   0  0  0  0  0  0  0  0  0  0  0  0
    3.6417  -25.4481    0.0000 N   0  0  0  0  0  0  0  0  0  0  0  0
    3.1823  -25.9076    0.0000 N   0  0  0  0  0  0  0  0  0  0  0  0
    2.5547  -25.7394    0.0000 C   0  0  0  0  0  0  0  0  0  0  0  0
    7.2843  -28.0625    0.0000 C   0  0  0  0  0  0  0  0  0  0  0  0
    7.2164  -27.4163    0.0000 N   0  0  0  0  0  0  0  0  0  0  0  0
    6.5809  -27.2812    0.0000 C   0  0  0  0  0  0  0  0  0  0  0  0
    6.2560  -27.8439    0.0000 C   0  0  0  0  0  0  0  0  0  0  0  0
    6.6908  -28.3267    0.0000 S   0  0  0  0  0  0  0  0  0  0  0  0
    6.7565  -26.6257    0.0000 C   0  0  0  0  0  0  0  0  0  0  0  0
    5.6098  -27.9118    0.0000 C   0  0  0  0  0  0  0  0  0  0  0  0
    5.2279  -27.3861    0.0000 N   0  0  0  0  0  0  0  0  0  0  0  0
    5.3455  -28.5054    0.0000 C   0  0  0  0  0  0  0  0  0  0  0  0
    5.4921  -26.7926    0.0000 N   0  0  0  0  0  0  0  0  0  0  0  0
    4.7853  -24.6173    0.0000 O   0  0  0  0  0  0  0  0  0  0  0  0
    2.3411  -24.9425    0.0000 C   0  0  0  0  0  0  0  0  0  0  0  0
    1.5442  -24.7290    0.0000 C   0  0  0  0  0  0  0  0  0  0  0  0
    0.9609  -25.3124    0.0000 C   0  0  0  0  0  0  0  0  0  0  0  0
    1.1744  -26.1093    0.0000 C   0  0  0  0  0  0  0  0  0  0  0  0
    1.9713  -26.3228    0.0000 C   0  0  0  0  0  0  0  0  0  0  0  0
    1.3307  -23.9321    0.0000 C   0  0  0  0  0  0  0  0  0  0  0  0
  1  2  2  0  0  0  0
  2  3  1  0  0  0  0
  3  4  2  0  0  0  0
  4  5  1  0  0  0  0
  4  7  1  0  0  0  0
  5  6  2  0  0  0  0
  6  1  1  0  0  0  0
  7  8  1  0  0  0  0
  8  9  1  0  0  0  0
  8 11  2  0  0  0  0
  9 10  2  0  0  0  0
  9 12  1  0  0  0  0
 10  5  1  0  0  0  0
 12 13  2  0  0  0  0
 12 14  1  0  0  0  0
 13 15  1  0  0  0  0
 15 24  1  0  0  0  0
 16 17  1  0  0  0  0
 17 18  1  0  0  0  0
 17 34  2  0  0  0  0
 18 19  1  0  0  0  0
 18 21  2  0  0  0  0
 19 20  1  0  0  0  0
 20 16  2  0  0  0  0
 21 22  1  0  0  0  0
 22 23  1  0  0  0  0
 23 35  2  0  0  0  0
 24 25  2  0  0  0  0
 25 26  1  0  0  0  0
 26 27  2  0  0  0  0
 26 29  1  0  0  0  0
 27 28  1  0  0  0  0
 27 30  1  0  0  0  0
 28 24  1  0  0  0  0
 30 31  2  0  0  0  0
 30 32  1  0  0  0  0
 31 33  1  0  0  0  0
 33 20  1  0  0  0  0
 35 36  1  0  0  0  0
 36 37  2  0  0  0  0
 36 40  1  0  0  0  0
 37 38  1  0  0  0  0
 38 39  2  0  0  0  0
 39 23  1  0  0  0  0
M  END
>  <Name>
C1_10d

$$$$
C1_10e
 OpenBabel11182102372D

 42 46  0  0  0  0  0  0  0  0999 V2000
   24.0845  -29.5828    0.0000 C   0  0  0  0  0  0  0  0  0  0  0  0
   24.0845  -28.9330    0.0000 C   0  0  0  0  0  0  0  0  0  0  0  0
   23.5218  -28.6082    0.0000 C   0  0  0  0  0  0  0  0  0  0  0  0
   22.9591  -28.9330    0.0000 C   0  0  0  0  0  0  0  0  0  0  0  0
   22.9591  -29.5828    0.0000 C   0  0  0  0  0  0  0  0  0  0  0  0
   23.5218  -29.9077    0.0000 C   0  0  0  0  0  0  0  0  0  0  0  0
   22.3964  -28.6082    0.0000 O   0  0  0  0  0  0  0  0  0  0  0  0
   21.8337  -28.9330    0.0000 C   0  0  0  0  0  0  0  0  0  0  0  0
   21.8337  -29.5828    0.0000 C   0  0  0  0  0  0  0  0  0  0  0  0
   22.3964  -29.9077    0.0000 C   0  0  0  0  0  0  0  0  0  0  0  0
   21.2710  -28.6082    0.0000 O   0  0  0  0  0  0  0  0  0  0  0  0
   21.2710  -29.9077    0.0000 C   0  0  0  0  0  0  0  0  0  0  0  0
   20.7082  -29.5828    0.0000 N   0  0  0  0  0  0  0  0  0  0  0  0
   21.2710  -30.5574    0.0000 C   0  0  0  0  0  0  0  0  0  0  0  0
   20.1455  -29.9077    0.0000 N   0  0  0  0  0  0  0  0  0  0  0  0
   17.6095  -27.1693    0.0000 N   0  0  0  0  0  0  0  0  0  0  0  0
   17.0838  -26.7874    0.0000 C   0  0  0  0  0  0  0  0  0  0  0  0
   16.5582  -27.1693    0.0000 C   0  0  0  0  0  0  0  0  0  0  0  0
   16.7590  -27.7872    0.0000 S   0  0  0  0  0  0  0  0  0  0  0  0
   17.4087  -27.7872    0.0000 C   0  0  0  0  0  0  0  0  0  0  0  0
   15.9402  -26.9685    0.0000 N   0  0  0  0  0  0  0  0  0  0  0  0
   15.4808  -27.4279    0.0000 N   0  0  0  0  0  0  0  0  0  0  0  0
   14.8532  -27.2598    0.0000 C   0  0  0  0  0  0  0  0  0  0  0  0
   19.5828  -29.5828    0.0000 C   0  0  0  0  0  0  0  0  0  0  0  0
   19.5149  -28.9366    0.0000 N   0  0  0  0  0  0  0  0  0  0  0  0
   18.8794  -28.8015    0.0000 C   0  0  0  0  0  0  0  0  0  0  0  0
   18.5545  -29.3642    0.0000 C   0  0  0  0  0  0  0  0  0  0  0  0
   18.9893  -29.8471    0.0000 S   0  0  0  0  0  0  0  0  0  0  0  0
   19.0550  -28.1460    0.0000 C   0  0  0  0  0  0  0  0  0  0  0  0
   17.9083  -29.4321    0.0000 C   0  0  0  0  0  0  0  0  0  0  0  0
   17.5264  -28.9065    0.0000 N   0  0  0  0  0  0  0  0  0  0  0  0
   17.6440  -30.0257    0.0000 C   0  0  0  0  0  0  0  0  0  0  0  0
   17.7906  -28.3129    0.0000 N   0  0  0  0  0  0  0  0  0  0  0  0
   17.0838  -26.1376    0.0000 O   0  0  0  0  0  0  0  0  0  0  0  0
   14.6396  -26.4629    0.0000 C   0  0  0  0  0  0  0  0  0  0  0  0
   13.8427  -26.2494    0.0000 C   0  0  0  0  0  0  0  0  0  0  0  0
   13.2594  -26.8327    0.0000 C   0  0  0  0  0  0  0  0  0  0  0  0
   13.4729  -27.6296    0.0000 C   0  0  0  0  0  0  0  0  0  0  0  0
   14.2698  -27.8431    0.0000 C   0  0  0  0  0  0  0  0  0  0  0  0
   12.4625  -26.6192    0.0000 N   0  3  0  0  0  0  0  0  0  0  0  0
   12.2494  -25.8237    0.0000 O   0  0  0  0  0  0  0  0  0  0  0  0
   11.8802  -27.2015    0.0000 O   0  5  0  0  0  0  0  0  0  0  0  0
  1  2  2  0  0  0  0
  2  3  1  0  0  0  0
  3  4  2  0  0  0  0
  4  5  1  0  0  0  0
  4  7  1  0  0  0  0
  5  6  2  0  0  0  0
  6  1  1  0  0  0  0
  7  8  1  0  0  0  0
  8  9  1  0  0  0  0
  8 11  2  0  0  0  0
  9 10  2  0  0  0  0
  9 12  1  0  0  0  0
 10  5  1  0  0  0  0
 12 13  2  0  0  0  0
 12 14  1  0  0  0  0
 13 15  1  0  0  0  0
 15 24  1  0  0  0  0
 16 17  1  0  0  0  0
 17 18  1  0  0  0  0
 17 34  2  0  0  0  0
 18 19  1  0  0  0  0
 18 21  2  0  0  0  0
 19 20  1  0  0  0  0
 20 16  2  0  0  0  0
 21 22  1  0  0  0  0
 22 23  1  0  0  0  0
 23 35  2  0  0  0  0
 24 25  2  0  0  0  0
 25 26  1  0  0  0  0
 26 27  2  0  0  0  0
 26 29  1  0  0  0  0
 27 28  1  0  0  0  0
 27 30  1  0  0  0  0
 28 24  1  0  0  0  0
 30 31  2  0  0  0  0
 30 32  1  0  0  0  0
 31 33  1  0  0  0  0
 33 20  1  0  0  0  0
 35 36  1  0  0  0  0
 36 37  2  0  0  0  0
 37 38  1  0  0  0  0
 37 40  1  0  0  0  0
 38 39  2  0  0  0  0
 39 23  1  0  0  0  0
 40 41  2  0  0  0  0
 40 42  1  0  0  0  0
M  CHG  2  40   1  42  -1
M  END
>  <Name>
C1_10e

$$$$
C1_12a
 OpenBabel11182102372D

 37 41  0  0  0  0  0  0  0  0999 V2000
   10.0736   -7.2395    0.0000 C   0  0  0  0  0  0  0  0  0  0  0  0
   10.0736   -6.4160    0.0000 C   0  0  0  0  0  0  0  0  0  0  0  0
    9.3604   -6.0043    0.0000 C   0  0  0  0  0  0  0  0  0  0  0  0
    8.6472   -6.4160    0.0000 C   0  0  0  0  0  0  0  0  0  0  0  0
    8.6472   -7.2395    0.0000 C   0  0  0  0  0  0  0  0  0  0  0  0
    9.3604   -7.6513    0.0000 C   0  0  0  0  0  0  0  0  0  0  0  0
    7.9340   -6.0043    0.0000 O   0  0  0  0  0  0  0  0  0  0  0  0
    7.2208   -6.4160    0.0000 C   0  0  0  0  0  0  0  0  0  0  0  0
    7.2208   -7.2395    0.0000 C   0  0  0  0  0  0  0  0  0  0  0  0
    7.9340   -7.6513    0.0000 C   0  0  0  0  0  0  0  0  0  0  0  0
    6.5076   -6.0043    0.0000 O   0  0  0  0  0  0  0  0  0  0  0  0
    6.5076   -7.6513    0.0000 C   0  0  0  0  0  0  0  0  0  0  0  0
    5.7945   -7.2395    0.0000 N   0  0  0  0  0  0  0  0  0  0  0  0
    6.5076   -8.4748    0.0000 C   0  0  0  0  0  0  0  0  0  0  0  0
    5.0813   -7.6513    0.0000 N   0  0  0  0  0  0  0  0  0  0  0  0
    1.8670   -4.1806    0.0000 N   0  0  0  0  0  0  0  0  0  0  0  0
    1.2008   -3.6965    0.0000 C   0  0  0  0  0  0  0  0  0  0  0  0
    0.5345   -4.1806    0.0000 C   0  0  0  0  0  0  0  0  0  0  0  0
    0.7890   -4.9638    0.0000 S   0  0  0  0  0  0  0  0  0  0  0  0
    1.6126   -4.9638    0.0000 C   0  0  0  0  0  0  0  0  0  0  0  0
    4.3681   -7.2395    0.0000 C   0  0  0  0  0  0  0  0  0  0  0  0
    4.2820   -6.4205    0.0000 N   0  0  0  0  0  0  0  0  0  0  0  0
    3.4765   -6.2493    0.0000 C   0  0  0  0  0  0  0  0  0  0  0  0
    3.0647   -6.9625    0.0000 C   0  0  0  0  0  0  0  0  0  0  0  0
    3.6158   -7.5745    0.0000 S   0  0  0  0  0  0  0  0  0  0  0  0
    3.4765   -5.4243    0.0000 C   0  0  0  0  0  0  0  0  0  0  0  0
    2.2457   -7.0486    0.0000 C   0  0  0  0  0  0  0  0  0  0  0  0
    1.7616   -6.3823    0.0000 N   0  0  0  0  0  0  0  0  0  0  0  0
    1.9107   -7.8009    0.0000 C   0  0  0  0  0  0  0  0  0  0  0  0
    2.0966   -5.6300    0.0000 N   0  0  0  0  0  0  0  0  0  0  0  0
    1.2008   -2.8730    0.0000 C   0  0  0  0  0  0  0  0  0  0  0  0
    1.9153   -2.4605    0.0000 C   0  0  0  0  0  0  0  0  0  0  0  0
    1.9153   -1.6355    0.0000 C   0  0  0  0  0  0  0  0  0  0  0  0
    1.2008   -1.2230    0.0000 C   0  0  0  0  0  0  0  0  0  0  0  0
    0.4863   -1.6355    0.0000 C   0  0  0  0  0  0  0  0  0  0  0  0
    0.4863   -2.4605    0.0000 C   0  0  0  0  0  0  0  0  0  0  0  0
    1.2008   -0.3980    0.0000 Cl  0  0  0  0  0  0  0  0  0  0  0  0
  1  2  2  0  0  0  0
  2  3  1  0  0  0  0
  3  4  2  0  0  0  0
  4  5  1  0  0  0  0
  4  7  1  0  0  0  0
  5  6  2  0  0  0  0
  6  1  1  0  0  0  0
  7  8  1  0  0  0  0
  8  9  1  0  0  0  0
  8 11  2  0  0  0  0
  9 10  2  0  0  0  0
  9 12  1  0  0  0  0
 10  5  1  0  0  0  0
 12 13  2  0  0  0  0
 12 14  1  0  0  0  0
 13 15  1  0  0  0  0
 15 21  1  0  0  0  0
 16 17  1  0  0  0  0
 17 18  2  0  0  0  0
 17 31  1  0  0  0  0
 18 19  1  0  0  0  0
 19 20  1  0  0  0  0
 20 16  2  0  0  0  0
 21 22  2  0  0  0  0
 22 23  1  0  0  0  0
 23 24  2  0  0  0  0
 23 26  1  0  0  0  0
 24 25  1  0  0  0  0
 24 27  1  0  0  0  0
 25 21  1  0  0  0  0
 27 28  2  0  0  0  0
 27 29  1  0  0  0  0
 28 30  1  0  0  0  0
 30 20  1  0  0  0  0
 31 32  2  0  0  0  0
 32 33  1  0  0  0  0
 33 34  2  0  0  0  0
 34 35  1  0  0  0  0
 34 37  1  0  0  0  0
 35 36  2  0  0  0  0
 36 31  1  0  0  0  0
M  END
>  <Name>
C1_12a

$$$$
C1_12b
 OpenBabel11182102372D

 38 42  0  0  0  0  0  0  0  0999 V2000
   20.3678   -7.1846    0.0000 C   0  0  0  0  0  0  0  0  0  0  0  0
   20.3678   -6.3611    0.0000 C   0  0  0  0  0  0  0  0  0  0  0  0
   19.6546   -5.9493    0.0000 C   0  0  0  0  0  0  0  0  0  0  0  0
   18.9415   -6.3611    0.0000 C   0  0  0  0  0  0  0  0  0  0  0  0
   18.9415   -7.1846    0.0000 C   0  0  0  0  0  0  0  0  0  0  0  0
   19.6546   -7.5964    0.0000 C   0  0  0  0  0  0  0  0  0  0  0  0
   18.2283   -5.9493    0.0000 O   0  0  0  0  0  0  0  0  0  0  0  0
   17.5151   -6.3611    0.0000 C   0  0  0  0  0  0  0  0  0  0  0  0
   17.5151   -7.1846    0.0000 C   0  0  0  0  0  0  0  0  0  0  0  0
   18.2283   -7.5964    0.0000 C   0  0  0  0  0  0  0  0  0  0  0  0
   16.8019   -5.9493    0.0000 O   0  0  0  0  0  0  0  0  0  0  0  0
   16.8019   -7.5964    0.0000 C   0  0  0  0  0  0  0  0  0  0  0  0
   16.0887   -7.1846    0.0000 N   0  0  0  0  0  0  0  0  0  0  0  0
   16.8019   -8.4199    0.0000 C   0  0  0  0  0  0  0  0  0  0  0  0
   15.3755   -7.5964    0.0000 N   0  0  0  0  0  0  0  0  0  0  0  0
   12.1613   -4.1256    0.0000 N   0  0  0  0  0  0  0  0  0  0  0  0
   11.4950   -3.6416    0.0000 C   0  0  0  0  0  0  0  0  0  0  0  0
   10.8288   -4.1256    0.0000 C   0  0  0  0  0  0  0  0  0  0  0  0
   11.0833   -4.9088    0.0000 S   0  0  0  0  0  0  0  0  0  0  0  0
   11.9068   -4.9088    0.0000 C   0  0  0  0  0  0  0  0  0  0  0  0
   14.6623   -7.1846    0.0000 C   0  0  0  0  0  0  0  0  0  0  0  0
   14.5762   -6.3656    0.0000 N   0  0  0  0  0  0  0  0  0  0  0  0
   13.7707   -6.1944    0.0000 C   0  0  0  0  0  0  0  0  0  0  0  0
   13.3590   -6.9076    0.0000 C   0  0  0  0  0  0  0  0  0  0  0  0
   13.9100   -7.5196    0.0000 S   0  0  0  0  0  0  0  0  0  0  0  0
   13.7707   -5.3694    0.0000 C   0  0  0  0  0  0  0  0  0  0  0  0
   12.5399   -6.9936    0.0000 C   0  0  0  0  0  0  0  0  0  0  0  0
   12.0559   -6.3274    0.0000 N   0  0  0  0  0  0  0  0  0  0  0  0
   12.2050   -7.7460    0.0000 C   0  0  0  0  0  0  0  0  0  0  0  0
   12.3908   -5.5751    0.0000 N   0  0  0  0  0  0  0  0  0  0  0  0
   11.4950   -2.8181    0.0000 C   0  0  0  0  0  0  0  0  0  0  0  0
   12.2095   -2.4056    0.0000 C   0  0  0  0  0  0  0  0  0  0  0  0
   12.2095   -1.5806    0.0000 C   0  0  0  0  0  0  0  0  0  0  0  0
   11.4950   -1.1681    0.0000 C   0  0  0  0  0  0  0  0  0  0  0  0
   10.7806   -1.5806    0.0000 C   0  0  0  0  0  0  0  0  0  0  0  0
   10.7806   -2.4056    0.0000 C   0  0  0  0  0  0  0  0  0  0  0  0
   11.4950   -0.3431    0.0000 O   0  0  0  0  0  0  0  0  0  0  0  0
   11.4950    0.4805    0.0000 C   0  0  0  0  0  0  0  0  0  0  0  0
  1  2  2  0  0  0  0
  2  3  1  0  0  0  0
  3  4  2  0  0  0  0
  4  5  1  0  0  0  0
  4  7  1  0  0  0  0
  5  6  2  0  0  0  0
  6  1  1  0  0  0  0
  7  8  1  0  0  0  0
  8  9  1  0  0  0  0
  8 11  2  0  0  0  0
  9 10  2  0  0  0  0
  9 12  1  0  0  0  0
 10  5  1  0  0  0  0
 12 13  2  0  0  0  0
 12 14  1  0  0  0  0
 13 15  1  0  0  0  0
 15 21  1  0  0  0  0
 16 17  1  0  0  0  0
 17 18  2  0  0  0  0
 17 31  1  0  0  0  0
 18 19  1  0  0  0  0
 19 20  1  0  0  0  0
 20 16  2  0  0  0  0
 21 22  2  0  0  0  0
 22 23  1  0  0  0  0
 23 24  2  0  0  0  0
 23 26  1  0  0  0  0
 24 25  1  0  0  0  0
 24 27  1  0  0  0  0
 25 21  1  0  0  0  0
 27 28  2  0  0  0  0
 27 29  1  0  0  0  0
 28 30  1  0  0  0  0
 30 20  1  0  0  0  0
 31 32  2  0  0  0  0
 32 33  1  0  0  0  0
 33 34  2  0  0  0  0
 34 35  1  0  0  0  0
 34 37  1  0  0  0  0
 35 36  2  0  0  0  0
 36 31  1  0  0  0  0
 37 38  1  0  0  0  0
M  END
>  <Name>
C1_12b

$$$$
C1_12c
 OpenBabel11182102372D

 37 41  0  0  0  0  0  0  0  0999 V2000
    9.9969  -15.7365    0.0000 C   0  0  0  0  0  0  0  0  0  0  0  0
    9.9969  -14.9130    0.0000 C   0  0  0  0  0  0  0  0  0  0  0  0
    9.2837  -14.5013    0.0000 C   0  0  0  0  0  0  0  0  0  0  0  0
    8.5705  -14.9130    0.0000 C   0  0  0  0  0  0  0  0  0  0  0  0
    8.5705  -15.7365    0.0000 C   0  0  0  0  0  0  0  0  0  0  0  0
    9.2837  -16.1483    0.0000 C   0  0  0  0  0  0  0  0  0  0  0  0
    7.8573  -14.5013    0.0000 O   0  0  0  0  0  0  0  0  0  0  0  0
    7.1442  -14.9130    0.0000 C   0  0  0  0  0  0  0  0  0  0  0  0
    7.1442  -15.7365    0.0000 C   0  0  0  0  0  0  0  0  0  0  0  0
    7.8573  -16.1483    0.0000 C   0  0  0  0  0  0  0  0  0  0  0  0
    6.4310  -14.5013    0.0000 O   0  0  0  0  0  0  0  0  0  0  0  0
    6.4310  -16.1483    0.0000 C   0  0  0  0  0  0  0  0  0  0  0  0
    5.7178  -15.7365    0.0000 N   0  0  0  0  0  0  0  0  0  0  0  0
    6.4310  -16.9718    0.0000 C   0  0  0  0  0  0  0  0  0  0  0  0
    5.0046  -16.1483    0.0000 N   0  0  0  0  0  0  0  0  0  0  0  0
    1.7904  -12.6776    0.0000 N   0  0  0  0  0  0  0  0  0  0  0  0
    1.1241  -12.1935    0.0000 C   0  0  0  0  0  0  0  0  0  0  0  0
    0.4579  -12.6776    0.0000 C   0  0  0  0  0  0  0  0  0  0  0  0
    0.7124  -13.4608    0.0000 S   0  0  0  0  0  0  0  0  0  0  0  0
    1.5359  -13.4608    0.0000 C   0  0  0  0  0  0  0  0  0  0  0  0
    4.2914  -15.7365    0.0000 C   0  0  0  0  0  0  0  0  0  0  0  0
    4.2053  -14.9175    0.0000 N   0  0  0  0  0  0  0  0  0  0  0  0
    3.3998  -14.7463    0.0000 C   0  0  0  0  0  0  0  0  0  0  0  0
    2.9880  -15.4595    0.0000 C   0  0  0  0  0  0  0  0  0  0  0  0
    3.5391  -16.0715    0.0000 S   0  0  0  0  0  0  0  0  0  0  0  0
    3.3998  -13.9213    0.0000 C   0  0  0  0  0  0  0  0  0  0  0  0
    2.1690  -15.5456    0.0000 C   0  0  0  0  0  0  0  0  0  0  0  0
    1.6850  -14.8793    0.0000 N   0  0  0  0  0  0  0  0  0  0  0  0
    1.8341  -16.2979    0.0000 C   0  0  0  0  0  0  0  0  0  0  0  0
    2.0199  -14.1270    0.0000 N   0  0  0  0  0  0  0  0  0  0  0  0
    1.1241  -11.3700    0.0000 C   0  0  0  0  0  0  0  0  0  0  0  0
    1.8386  -10.9575    0.0000 C   0  0  0  0  0  0  0  0  0  0  0  0
    1.8386  -10.1325    0.0000 C   0  0  0  0  0  0  0  0  0  0  0  0
    1.1241   -9.7200    0.0000 C   0  0  0  0  0  0  0  0  0  0  0  0
    0.4096  -10.1325    0.0000 C   0  0  0  0  0  0  0  0  0  0  0  0
    0.4096  -10.9575    0.0000 C   0  0  0  0  0  0  0  0  0  0  0  0
    1.1241   -8.8950    0.0000 N   0  0  0  0  0  0  0  0  0  0  0  0
  1  2  2  0  0  0  0
  2  3  1  0  0  0  0
  3  4  2  0  0  0  0
  4  5  1  0  0  0  0
  4  7  1  0  0  0  0
  5  6  2  0  0  0  0
  6  1  1  0  0  0  0
  7  8  1  0  0  0  0
  8  9  1  0  0  0  0
  8 11  2  0  0  0  0
  9 10  2  0  0  0  0
  9 12  1  0  0  0  0
 10  5  1  0  0  0  0
 12 13  2  0  0  0  0
 12 14  1  0  0  0  0
 13 15  1  0  0  0  0
 15 21  1  0  0  0  0
 16 17  1  0  0  0  0
 17 18  2  0  0  0  0
 17 31  1  0  0  0  0
 18 19  1  0  0  0  0
 19 20  1  0  0  0  0
 20 16  2  0  0  0  0
 21 22  2  0  0  0  0
 22 23  1  0  0  0  0
 23 24  2  0  0  0  0
 23 26  1  0  0  0  0
 24 25  1  0  0  0  0
 24 27  1  0  0  0  0
 25 21  1  0  0  0  0
 27 28  2  0  0  0  0
 27 29  1  0  0  0  0
 28 30  1  0  0  0  0
 30 20  1  0  0  0  0
 31 32  2  0  0  0  0
 32 33  1  0  0  0  0
 33 34  2  0  0  0  0
 34 35  1  0  0  0  0
 34 37  1  0  0  0  0
 35 36  2  0  0  0  0
 36 31  1  0  0  0  0
M  END
>  <Name>
C1_12c

$$$$
C1_12d
 OpenBabel11182102372D

 36 40  0  0  0  0  0  0  0  0999 V2000
   20.6122  -14.4877    0.0000 C   0  0  0  0  0  0  0  0  0  0  0  0
   20.6122  -13.6642    0.0000 C   0  0  0  0  0  0  0  0  0  0  0  0
   19.8990  -13.2524    0.0000 C   0  0  0  0  0  0  0  0  0  0  0  0
   19.1858  -13.6642    0.0000 C   0  0  0  0  0  0  0  0  0  0  0  0
   19.1858  -14.4877    0.0000 C   0  0  0  0  0  0  0  0  0  0  0  0
   19.8990  -14.8994    0.0000 C   0  0  0  0  0  0  0  0  0  0  0  0
   18.4726  -13.2524    0.0000 O   0  0  0  0  0  0  0  0  0  0  0  0
   17.7594  -13.6642    0.0000 C   0  0  0  0  0  0  0  0  0  0  0  0
   17.7594  -14.4877    0.0000 C   0  0  0  0  0  0  0  0  0  0  0  0
   18.4726  -14.8994    0.0000 C   0  0  0  0  0  0  0  0  0  0  0  0
   17.0462  -13.2524    0.0000 O   0  0  0  0  0  0  0  0  0  0  0  0
   17.0462  -14.8994    0.0000 C   0  0  0  0  0  0  0  0  0  0  0  0
   16.3330  -14.4877    0.0000 N   0  0  0  0  0  0  0  0  0  0  0  0
   17.0462  -15.7230    0.0000 C   0  0  0  0  0  0  0  0  0  0  0  0
   15.6198  -14.8994    0.0000 N   0  0  0  0  0  0  0  0  0  0  0  0
   12.4056  -11.4287    0.0000 N   0  0  0  0  0  0  0  0  0  0  0  0
   11.7394  -10.9447    0.0000 C   0  0  0  0  0  0  0  0  0  0  0  0
   11.0731  -11.4287    0.0000 C   0  0  0  0  0  0  0  0  0  0  0  0
   11.3276  -12.2119    0.0000 S   0  0  0  0  0  0  0  0  0  0  0  0
   12.1511  -12.2119    0.0000 C   0  0  0  0  0  0  0  0  0  0  0  0
   14.9067  -14.4877    0.0000 C   0  0  0  0  0  0  0  0  0  0  0  0
   14.8206  -13.6687    0.0000 N   0  0  0  0  0  0  0  0  0  0  0  0
   14.0151  -13.4975    0.0000 C   0  0  0  0  0  0  0  0  0  0  0  0
   13.6033  -14.2106    0.0000 C   0  0  0  0  0  0  0  0  0  0  0  0
   14.1543  -14.8226    0.0000 S   0  0  0  0  0  0  0  0  0  0  0  0
   14.0151  -12.6725    0.0000 C   0  0  0  0  0  0  0  0  0  0  0  0
   12.7843  -14.2967    0.0000 C   0  0  0  0  0  0  0  0  0  0  0  0
   12.3002  -13.6305    0.0000 N   0  0  0  0  0  0  0  0  0  0  0  0
   12.4493  -15.0491    0.0000 C   0  0  0  0  0  0  0  0  0  0  0  0
   12.6352  -12.8782    0.0000 N   0  0  0  0  0  0  0  0  0  0  0  0
   11.7394  -10.1211    0.0000 C   0  0  0  0  0  0  0  0  0  0  0  0
   12.4538   -9.7086    0.0000 N   0  0  0  0  0  0  0  0  0  0  0  0
   12.4538   -8.8836    0.0000 C   0  0  0  0  0  0  0  0  0  0  0  0
   11.7394   -8.4711    0.0000 C   0  0  0  0  0  0  0  0  0  0  0  0
   11.0249   -8.8836    0.0000 C   0  0  0  0  0  0  0  0  0  0  0  0
   11.0249   -9.7086    0.0000 C   0  0  0  0  0  0  0  0  0  0  0  0
  1  2  2  0  0  0  0
  2  3  1  0  0  0  0
  3  4  2  0  0  0  0
  4  5  1  0  0  0  0
  4  7  1  0  0  0  0
  5  6  2  0  0  0  0
  6  1  1  0  0  0  0
  7  8  1  0  0  0  0
  8  9  1  0  0  0  0
  8 11  2  0  0  0  0
  9 10  2  0  0  0  0
  9 12  1  0  0  0  0
 10  5  1  0  0  0  0
 12 13  2  0  0  0  0
 12 14  1  0  0  0  0
 13 15  1  0  0  0  0
 15 21  1  0  0  0  0
 16 17  1  0  0  0  0
 17 18  2  0  0  0  0
 17 31  1  0  0  0  0
 18 19  1  0  0  0  0
 19 20  1  0  0  0  0
 20 16  2  0  0  0  0
 21 22  2  0  0  0  0
 22 23  1  0  0  0  0
 23 24  2  0  0  0  0
 23 26  1  0  0  0  0
 24 25  1  0  0  0  0
 24 27  1  0  0  0  0
 25 21  1  0  0  0  0
 27 28  2  0  0  0  0
 27 29  1  0  0  0  0
 28 30  1  0  0  0  0
 30 20  1  0  0  0  0
 31 32  2  0  0  0  0
 32 33  1  0  0  0  0
 33 34  2  0  0  0  0
 34 35  1  0  0  0  0
 35 36  2  0  0  0  0
 36 31  1  0  0  0  0
M  END
>  <Name>
C1_12d

$$$$
C1_12e
 OpenBabel11182102372D

 41 46  0  0  0  0  0  0  0  0999 V2000
   10.4856  -24.6957    0.0000 C   0  0  0  0  0  0  0  0  0  0  0  0
   10.4856  -23.8722    0.0000 C   0  0  0  0  0  0  0  0  0  0  0  0
    9.7724  -23.4604    0.0000 C   0  0  0  0  0  0  0  0  0  0  0  0
    9.0592  -23.8722    0.0000 C   0  0  0  0  0  0  0  0  0  0  0  0
    9.0592  -24.6957    0.0000 C   0  0  0  0  0  0  0  0  0  0  0  0
    9.7724  -25.1075    0.0000 C   0  0  0  0  0  0  0  0  0  0  0  0
    8.3460  -23.4604    0.0000 O   0  0  0  0  0  0  0  0  0  0  0  0
    7.6328  -23.8722    0.0000 C   0  0  0  0  0  0  0  0  0  0  0  0
    7.6328  -24.6957    0.0000 C   0  0  0  0  0  0  0  0  0  0  0  0
    8.3460  -25.1075    0.0000 C   0  0  0  0  0  0  0  0  0  0  0  0
    6.9196  -23.4604    0.0000 O   0  0  0  0  0  0  0  0  0  0  0  0
    6.9196  -25.1075    0.0000 C   0  0  0  0  0  0  0  0  0  0  0  0
    6.2065  -24.6957    0.0000 N   0  0  0  0  0  0  0  0  0  0  0  0
    6.9196  -25.9310    0.0000 C   0  0  0  0  0  0  0  0  0  0  0  0
    5.4933  -25.1075    0.0000 N   0  0  0  0  0  0  0  0  0  0  0  0
    2.2790  -21.6367    0.0000 N   0  0  0  0  0  0  0  0  0  0  0  0
    1.6128  -21.1527    0.0000 C   0  0  0  0  0  0  0  0  0  0  0  0
    0.9466  -21.6367    0.0000 C   0  0  0  0  0  0  0  0  0  0  0  0
    1.2010  -22.4199    0.0000 S   0  0  0  0  0  0  0  0  0  0  0  0
    2.0246  -22.4199    0.0000 C   0  0  0  0  0  0  0  0  0  0  0  0
    4.7801  -24.6957    0.0000 C   0  0  0  0  0  0  0  0  0  0  0  0
    4.6940  -23.8767    0.0000 N   0  0  0  0  0  0  0  0  0  0  0  0
    3.8885  -23.7055    0.0000 C   0  0  0  0  0  0  0  0  0  0  0  0
    3.4767  -24.4187    0.0000 C   0  0  0  0  0  0  0  0  0  0  0  0
    4.0278  -25.0307    0.0000 S   0  0  0  0  0  0  0  0  0  0  0  0
    3.8885  -22.8805    0.0000 C   0  0  0  0  0  0  0  0  0  0  0  0
    2.6577  -24.5048    0.0000 C   0  0  0  0  0  0  0  0  0  0  0  0
    2.1737  -23.8385    0.0000 N   0  0  0  0  0  0  0  0  0  0  0  0
    2.3227  -25.2571    0.0000 C   0  0  0  0  0  0  0  0  0  0  0  0
    2.5086  -23.0862    0.0000 N   0  0  0  0  0  0  0  0  0  0  0  0
    1.6128  -20.3292    0.0000 C   0  0  0  0  0  0  0  0  0  0  0  0
    2.3273  -19.9167    0.0000 C   0  0  0  0  0  0  0  0  0  0  0  0
    2.3273  -19.0917    0.0000 O   0  0  0  0  0  0  0  0  0  0  0  0
    1.6128  -18.6792    0.0000 C   0  0  0  0  0  0  0  0  0  0  0  0
    0.8983  -19.0917    0.0000 C   0  0  0  0  0  0  0  0  0  0  0  0
    0.8983  -19.9167    0.0000 C   0  0  0  0  0  0  0  0  0  0  0  0
    3.0417  -20.3292    0.0000 O   0  0  0  0  0  0  0  0  0  0  0  0
    1.6128  -17.8542    0.0000 C   0  0  0  0  0  0  0  0  0  0  0  0
    0.8983  -17.4417    0.0000 C   0  0  0  0  0  0  0  0  0  0  0  0
    0.1839  -17.8542    0.0000 C   0  0  0  0  0  0  0  0  0  0  0  0
    0.1839  -18.6792    0.0000 C   0  0  0  0  0  0  0  0  0  0  0  0
  1  2  2  0  0  0  0
  2  3  1  0  0  0  0
  3  4  2  0  0  0  0
  4  5  1  0  0  0  0
  4  7  1  0  0  0  0
  5  6  2  0  0  0  0
  6  1  1  0  0  0  0
  7  8  1  0  0  0  0
  8  9  1  0  0  0  0
  8 11  2  0  0  0  0
  9 10  2  0  0  0  0
  9 12  1  0  0  0  0
 10  5  1  0  0  0  0
 12 13  2  0  0  0  0
 12 14  1  0  0  0  0
 13 15  1  0  0  0  0
 15 21  1  0  0  0  0
 16 17  1  0  0  0  0
 17 18  2  0  0  0  0
 17 31  1  0  0  0  0
 18 19  1  0  0  0  0
 19 20  1  0  0  0  0
 20 16  2  0  0  0  0
 21 22  2  0  0  0  0
 22 23  1  0  0  0  0
 23 24  2  0  0  0  0
 23 26  1  0  0  0  0
 24 25  1  0  0  0  0
 24 27  1  0  0  0  0
 25 21  1  0  0  0  0
 27 28  2  0  0  0  0
 27 29  1  0  0  0  0
 28 30  1  0  0  0  0
 30 20  1  0  0  0  0
 31 32  1  0  0  0  0
 32 33  1  0  0  0  0
 32 37  2  0  0  0  0
 33 34  1  0  0  0  0
 34 35  2  0  0  0  0
 34 38  1  0  0  0  0
 35 36  1  0  0  0  0
 36 31  2  0  0  0  0
 38 39  2  0  0  0  0
 39 40  1  0  0  0  0
 40 41  2  0  0  0  0
 41 35  1  0  0  0  0
M  END
>  <Name>
C1_12e

$$$$
C1_12f
 OpenBabel11182102372D

 45 51  0  0  0  0  0  0  0  0999 V2000
   22.5669  -23.0396    0.0000 C   0  0  0  0  0  0  0  0  0  0  0  0
   22.5669  -22.2161    0.0000 C   0  0  0  0  0  0  0  0  0  0  0  0
   21.8537  -21.8043    0.0000 C   0  0  0  0  0  0  0  0  0  0  0  0
   21.1405  -22.2161    0.0000 C   0  0  0  0  0  0  0  0  0  0  0  0
   21.1405  -23.0396    0.0000 C   0  0  0  0  0  0  0  0  0  0  0  0
   21.8537  -23.4514    0.0000 C   0  0  0  0  0  0  0  0  0  0  0  0
   20.4273  -21.8043    0.0000 O   0  0  0  0  0  0  0  0  0  0  0  0
   19.7141  -22.2161    0.0000 C   0  0  0  0  0  0  0  0  0  0  0  0
   19.7141  -23.0396    0.0000 C   0  0  0  0  0  0  0  0  0  0  0  0
   20.4273  -23.4514    0.0000 C   0  0  0  0  0  0  0  0  0  0  0  0
   19.0010  -21.8043    0.0000 O   0  0  0  0  0  0  0  0  0  0  0  0
   19.0010  -23.4514    0.0000 C   0  0  0  0  0  0  0  0  0  0  0  0
   18.2878  -23.0396    0.0000 N   0  0  0  0  0  0  0  0  0  0  0  0
   19.0010  -24.2749    0.0000 C   0  0  0  0  0  0  0  0  0  0  0  0
   17.5746  -23.4514    0.0000 N   0  0  0  0  0  0  0  0  0  0  0  0
   14.3603  -19.9806    0.0000 N   0  0  0  0  0  0  0  0  0  0  0  0
   13.6941  -19.4966    0.0000 C   0  0  0  0  0  0  0  0  0  0  0  0
   13.0279  -19.9806    0.0000 C   0  0  0  0  0  0  0  0  0  0  0  0
   13.2823  -20.7639    0.0000 S   0  0  0  0  0  0  0  0  0  0  0  0
   14.1059  -20.7639    0.0000 C   0  0  0  0  0  0  0  0  0  0  0  0
   16.8614  -23.0396    0.0000 C   0  0  0  0  0  0  0  0  0  0  0  0
   16.7753  -22.2206    0.0000 N   0  0  0  0  0  0  0  0  0  0  0  0
   15.9698  -22.0494    0.0000 C   0  0  0  0  0  0  0  0  0  0  0  0
   15.5580  -22.7626    0.0000 C   0  0  0  0  0  0  0  0  0  0  0  0
   16.1091  -23.3746    0.0000 S   0  0  0  0  0  0  0  0  0  0  0  0
   15.9698  -21.2244    0.0000 C   0  0  0  0  0  0  0  0  0  0  0  0
   14.7390  -22.8487    0.0000 C   0  0  0  0  0  0  0  0  0  0  0  0
   14.2550  -22.1824    0.0000 N   0  0  0  0  0  0  0  0  0  0  0  0
   14.4041  -23.6010    0.0000 C   0  0  0  0  0  0  0  0  0  0  0  0
   14.5899  -21.4301    0.0000 N   0  0  0  0  0  0  0  0  0  0  0  0
   13.6968  -18.8717    0.0000 C   0  0  0  0  0  0  0  0  0  0  0  0
   14.4112  -18.4592    0.0000 C   0  0  0  0  0  0  0  0  0  0  0  0
   14.4112  -17.6342    0.0000 O   0  0  0  0  0  0  0  0  0  0  0  0
   13.6968  -17.2217    0.0000 C   0  0  0  0  0  0  0  0  0  0  0  0
   12.9823  -17.6342    0.0000 C   0  0  0  0  0  0  0  0  0  0  0  0
   12.9823  -18.4592    0.0000 C   0  0  0  0  0  0  0  0  0  0  0  0
   15.1257  -18.8717    0.0000 O   0  0  0  0  0  0  0  0  0  0  0  0
   13.6968  -16.3967    0.0000 C   0  0  0  0  0  0  0  0  0  0  0  0
   12.9823  -15.9842    0.0000 C   0  0  0  0  0  0  0  0  0  0  0  0
   12.2678  -16.3967    0.0000 C   0  0  0  0  0  0  0  0  0  0  0  0
   12.2678  -17.2217    0.0000 C   0  0  0  0  0  0  0  0  0  0  0  0
   11.5533  -15.9842    0.0000 C   0  0  0  0  0  0  0  0  0  0  0  0
   10.8389  -16.3967    0.0000 C   0  0  0  0  0  0  0  0  0  0  0  0
   10.8389  -17.2217    0.0000 C   0  0  0  0  0  0  0  0  0  0  0  0
   11.5533  -17.6342    0.0000 C   0  0  0  0  0  0  0  0  0  0  0  0
  1  2  2  0  0  0  0
  2  3  1  0  0  0  0
  3  4  2  0  0  0  0
  4  5  1  0  0  0  0
  4  7  1  0  0  0  0
  5  6  2  0  0  0  0
  6  1  1  0  0  0  0
  7  8  1  0  0  0  0
  8  9  1  0  0  0  0
  8 11  2  0  0  0  0
  9 10  2  0  0  0  0
  9 12  1  0  0  0  0
 10  5  1  0  0  0  0
 12 13  2  0  0  0  0
 12 14  1  0  0  0  0
 13 15  1  0  0  0  0
 15 21  1  0  0  0  0
 16 17  1  0  0  0  0
 17 18  2  0  0  0  0
 18 19  1  0  0  0  0
 19 20  1  0  0  0  0
 20 16  2  0  0  0  0
 21 22  2  0  0  0  0
 22 23  1  0  0  0  0
 23 24  2  0  0  0  0
 23 26  1  0  0  0  0
 24 25  1  0  0  0  0
 24 27  1  0  0  0  0
 25 21  1  0  0  0  0
 27 28  2  0  0  0  0
 27 29  1  0  0  0  0
 28 30  1  0  0  0  0
 30 20  1  0  0  0  0
 31 17  1  0  0  0  0
 31 32  1  0  0  0  0
 32 33  1  0  0  0  0
 32 37  2  0  0  0  0
 33 34  1  0  0  0  0
 34 35  2  0  0  0  0
 34 38  1  0  0  0  0
 35 36  1  0  0  0  0
 36 31  2  0  0  0  0
 38 39  2  0  0  0  0
 39 40  1  0  0  0  0
 40 41  2  0  0  0  0
 40 42  1  0  0  0  0
 41 35  1  0  0  0  0
 42 43  2  0  0  0  0
 43 44  1  0  0  0  0
 44 45  2  0  0  0  0
 45 41  1  0  0  0  0
M  END
>  <Name>
C1_12f

$$$$
C1_6
 OpenBabel11182102372D

 28 30  0  0  0  0  0  0  0  0999 V2000
    0.2673   -2.2196    0.0000 C   0  0  0  0  0  0  0  0  0  0  0  0
    0.2673   -2.9844    0.0000 C   0  0  0  0  0  0  0  0  0  0  0  0
    0.9296   -3.3668    0.0000 C   0  0  0  0  0  0  0  0  0  0  0  0
    1.5919   -2.9844    0.0000 C   0  0  0  0  0  0  0  0  0  0  0  0
    1.5919   -2.2196    0.0000 C   0  0  0  0  0  0  0  0  0  0  0  0
    0.9296   -1.8372    0.0000 C   0  0  0  0  0  0  0  0  0  0  0  0
    2.2543   -3.3668    0.0000 O   0  0  0  0  0  0  0  0  0  0  0  0
    2.9166   -2.9844    0.0000 C   0  0  0  0  0  0  0  0  0  0  0  0
    2.9166   -2.2196    0.0000 C   0  0  0  0  0  0  0  0  0  0  0  0
    2.2543   -1.8372    0.0000 C   0  0  0  0  0  0  0  0  0  0  0  0
    3.5789   -3.3668    0.0000 O   0  0  0  0  0  0  0  0  0  0  0  0
    3.5789   -1.8372    0.0000 C   0  0  0  0  0  0  0  0  0  0  0  0
    4.2412   -2.2196    0.0000 N   0  0  0  0  0  0  0  0  0  0  0  0
    3.5789   -1.0724    0.0000 C   0  0  0  0  0  0  0  0  0  0  0  0
    4.9035   -1.8372    0.0000 N   0  0  0  0  0  0  0  0  0  0  0  0
    5.5658   -2.2196    0.0000 C   0  0  0  0  0  0  0  0  0  0  0  0
    5.6458   -2.9802    0.0000 N   0  0  0  0  0  0  0  0  0  0  0  0
    6.3938   -3.1392    0.0000 C   0  0  0  0  0  0  0  0  0  0  0  0
    6.7762   -2.4769    0.0000 C   0  0  0  0  0  0  0  0  0  0  0  0
    6.2645   -1.9085    0.0000 S   0  0  0  0  0  0  0  0  0  0  0  0
    7.5368   -2.3969    0.0000 C   0  0  0  0  0  0  0  0  0  0  0  0
    7.9863   -3.0157    0.0000 N   0  0  0  0  0  0  0  0  0  0  0  0
    8.7469   -2.9357    0.0000 N   0  0  0  0  0  0  0  0  0  0  0  0
    9.1964   -3.5544    0.0000 C   0  0  0  0  0  0  0  0  0  0  0  0
    6.7049   -3.8379    0.0000 C   0  0  0  0  0  0  0  0  0  0  0  0
    7.8479   -1.6983    0.0000 C   0  0  0  0  0  0  0  0  0  0  0  0
    9.9570   -3.4745    0.0000 N   0  0  0  0  0  0  0  0  0  0  0  0
    8.8854   -4.2531    0.0000 S   0  0  0  0  0  0  0  0  0  0  0  0
  1  2  2  0  0  0  0
  2  3  1  0  0  0  0
  3  4  2  0  0  0  0
  4  5  1  0  0  0  0
  4  7  1  0  0  0  0
  5  6  2  0  0  0  0
  6  1  1  0  0  0  0
  7  8  1  0  0  0  0
  8  9  1  0  0  0  0
  8 11  2  0  0  0  0
  9 10  2  0  0  0  0
  9 12  1  0  0  0  0
 10  5  1  0  0  0  0
 12 13  2  0  0  0  0
 12 14  1  0  0  0  0
 13 15  1  0  0  0  0
 15 16  1  0  0  0  0
 16 17  2  0  0  0  0
 17 18  1  0  0  0  0
 18 19  2  0  0  0  0
 18 25  1  0  0  0  0
 19 20  1  0  0  0  0
 19 21  1  0  0  0  0
 20 16  1  0  0  0  0
 21 22  2  0  0  0  0
 21 26  1  0  0  0  0
 22 23  1  0  0  0  0
 23 24  1  0  0  0  0
 24 27  1  0  0  0  0
 24 28  2  0  0  0  0
M  END
>  <Name>
C1_6

$$$$
C1_8a
 OpenBabel11182102372D

 39 43  0  0  0  0  0  0  0  0999 V2000
   22.8138   -4.5598    0.0000 C   0  0  0  0  0  0  0  0  0  0  0  0
   22.8138   -3.9147    0.0000 C   0  0  0  0  0  0  0  0  0  0  0  0
   22.2552   -3.5922    0.0000 C   0  0  0  0  0  0  0  0  0  0  0  0
   21.6965   -3.9147    0.0000 C   0  0  0  0  0  0  0  0  0  0  0  0
   21.6965   -4.5598    0.0000 C   0  0  0  0  0  0  0  0  0  0  0  0
   22.2552   -4.8823    0.0000 C   0  0  0  0  0  0  0  0  0  0  0  0
   21.1379   -3.5922    0.0000 O   0  0  0  0  0  0  0  0  0  0  0  0
   20.5792   -3.9147    0.0000 C   0  0  0  0  0  0  0  0  0  0  0  0
   20.5792   -4.5598    0.0000 C   0  0  0  0  0  0  0  0  0  0  0  0
   21.1379   -4.8823    0.0000 C   0  0  0  0  0  0  0  0  0  0  0  0
   20.0206   -3.5922    0.0000 O   0  0  0  0  0  0  0  0  0  0  0  0
   20.0206   -4.8823    0.0000 C   0  0  0  0  0  0  0  0  0  0  0  0
   19.4619   -4.5598    0.0000 N   0  0  0  0  0  0  0  0  0  0  0  0
   20.0206   -5.5274    0.0000 C   0  0  0  0  0  0  0  0  0  0  0  0
   18.9033   -4.8823    0.0000 N   0  0  0  0  0  0  0  0  0  0  0  0
   16.3855   -2.1636    0.0000 N   0  0  0  0  0  0  0  0  0  0  0  0
   15.8637   -1.7845    0.0000 C   0  0  0  0  0  0  0  0  0  0  0  0
   15.3418   -2.1636    0.0000 C   0  0  0  0  0  0  0  0  0  0  0  0
   15.5411   -2.7772    0.0000 S   0  0  0  0  0  0  0  0  0  0  0  0
   16.1862   -2.7772    0.0000 C   0  0  0  0  0  0  0  0  0  0  0  0
   14.7283   -1.9643    0.0000 N   0  0  0  0  0  0  0  0  0  0  0  0
   14.2721   -2.4204    0.0000 N   0  0  0  0  0  0  0  0  0  0  0  0
   13.6490   -2.2535    0.0000 C   0  0  0  0  0  0  0  0  0  0  0  0
   18.3446   -4.5598    0.0000 C   0  0  0  0  0  0  0  0  0  0  0  0
   18.2772   -3.9182    0.0000 N   0  0  0  0  0  0  0  0  0  0  0  0
   17.6462   -3.7841    0.0000 C   0  0  0  0  0  0  0  0  0  0  0  0
   17.3237   -4.3428    0.0000 C   0  0  0  0  0  0  0  0  0  0  0  0
   17.7553   -4.8222    0.0000 S   0  0  0  0  0  0  0  0  0  0  0  0
   17.8206   -3.1334    0.0000 C   0  0  0  0  0  0  0  0  0  0  0  0
   16.6821   -4.4102    0.0000 C   0  0  0  0  0  0  0  0  0  0  0  0
   16.3030   -3.8883    0.0000 N   0  0  0  0  0  0  0  0  0  0  0  0
   16.4198   -4.9995    0.0000 C   0  0  0  0  0  0  0  0  0  0  0  0
   16.5654   -3.2990    0.0000 N   0  0  0  0  0  0  0  0  0  0  0  0
   15.8637   -1.1394    0.0000 C   0  0  0  0  0  0  0  0  0  0  0  0
   13.4511   -1.5148    0.0000 C   0  0  0  0  0  0  0  0  0  0  0  0
   12.7124   -1.3168    0.0000 C   0  0  0  0  0  0  0  0  0  0  0  0
   12.1716   -1.8576    0.0000 C   0  0  0  0  0  0  0  0  0  0  0  0
   12.3695   -2.5963    0.0000 C   0  0  0  0  0  0  0  0  0  0  0  0
   13.1083   -2.7943    0.0000 C   0  0  0  0  0  0  0  0  0  0  0  0
  1  2  2  0  0  0  0
  2  3  1  0  0  0  0
  3  4  2  0  0  0  0
  4  5  1  0  0  0  0
  4  7  1  0  0  0  0
  5  6  2  0  0  0  0
  6  1  1  0  0  0  0
  7  8  1  0  0  0  0
  8  9  1  0  0  0  0
  8 11  2  0  0  0  0
  9 10  2  0  0  0  0
  9 12  1  0  0  0  0
 10  5  1  0  0  0  0
 12 13  2  0  0  0  0
 12 14  1  0  0  0  0
 13 15  1  0  0  0  0
 15 24  1  0  0  0  0
 16 17  1  0  0  0  0
 17 18  2  0  0  0  0
 17 34  1  0  0  0  0
 18 19  1  0  0  0  0
 18 21  1  0  0  0  0
 19 20  1  0  0  0  0
 20 16  2  0  0  0  0
 21 22  2  0  0  0  0
 22 23  1  0  0  0  0
 23 35  2  0  0  0  0
 24 25  2  0  0  0  0
 25 26  1  0  0  0  0
 26 27  2  0  0  0  0
 26 29  1  0  0  0  0
 27 28  1  0  0  0  0
 27 30  1  0  0  0  0
 28 24  1  0  0  0  0
 30 31  2  0  0  0  0
 30 32  1  0  0  0  0
 31 33  1  0  0  0  0
 33 20  1  0  0  0  0
 35 36  1  0  0  0  0
 36 37  2  0  0  0  0
 37 38  1  0  0  0  0
 38 39  2  0  0  0  0
 39 23  1  0  0  0  0
M  END
>  <Name>
C1_8a

$$$$
C1_8b
 OpenBabel11182102372D

 40 44  0  0  0  0  0  0  0  0999 V2000
   11.8488   -7.8154    0.0000 C   0  0  0  0  0  0  0  0  0  0  0  0
   11.8488   -7.2019    0.0000 C   0  0  0  0  0  0  0  0  0  0  0  0
   11.3175   -6.8951    0.0000 C   0  0  0  0  0  0  0  0  0  0  0  0
   10.7862   -7.2019    0.0000 C   0  0  0  0  0  0  0  0  0  0  0  0
   10.7862   -7.8154    0.0000 C   0  0  0  0  0  0  0  0  0  0  0  0
   11.3175   -8.1221    0.0000 C   0  0  0  0  0  0  0  0  0  0  0  0
   10.2549   -6.8951    0.0000 O   0  0  0  0  0  0  0  0  0  0  0  0
    9.7236   -7.2019    0.0000 C   0  0  0  0  0  0  0  0  0  0  0  0
    9.7236   -7.8154    0.0000 C   0  0  0  0  0  0  0  0  0  0  0  0
   10.2549   -8.1221    0.0000 C   0  0  0  0  0  0  0  0  0  0  0  0
    9.1922   -6.8951    0.0000 O   0  0  0  0  0  0  0  0  0  0  0  0
    9.1922   -8.1221    0.0000 C   0  0  0  0  0  0  0  0  0  0  0  0
    8.6609   -7.8154    0.0000 N   0  0  0  0  0  0  0  0  0  0  0  0
    9.1922   -8.7356    0.0000 C   0  0  0  0  0  0  0  0  0  0  0  0
    8.1296   -8.1221    0.0000 N   0  0  0  0  0  0  0  0  0  0  0  0
    5.7351   -5.5365    0.0000 N   0  0  0  0  0  0  0  0  0  0  0  0
    5.2388   -5.1759    0.0000 C   0  0  0  0  0  0  0  0  0  0  0  0
    4.7425   -5.5365    0.0000 C   0  0  0  0  0  0  0  0  0  0  0  0
    4.9321   -6.1200    0.0000 S   0  0  0  0  0  0  0  0  0  0  0  0
    5.5456   -6.1200    0.0000 C   0  0  0  0  0  0  0  0  0  0  0  0
    4.1590   -5.3469    0.0000 N   0  0  0  0  0  0  0  0  0  0  0  0
    3.7252   -5.7807    0.0000 N   0  0  0  0  0  0  0  0  0  0  0  0
    3.1326   -5.6220    0.0000 C   0  0  0  0  0  0  0  0  0  0  0  0
    7.5983   -7.8154    0.0000 C   0  0  0  0  0  0  0  0  0  0  0  0
    7.5342   -7.2052    0.0000 N   0  0  0  0  0  0  0  0  0  0  0  0
    6.9341   -7.0777    0.0000 C   0  0  0  0  0  0  0  0  0  0  0  0
    6.6274   -7.6090    0.0000 C   0  0  0  0  0  0  0  0  0  0  0  0
    7.0379   -8.0649    0.0000 S   0  0  0  0  0  0  0  0  0  0  0  0
    7.1000   -6.4588    0.0000 C   0  0  0  0  0  0  0  0  0  0  0  0
    6.0172   -7.6731    0.0000 C   0  0  0  0  0  0  0  0  0  0  0  0
    5.6566   -7.1768    0.0000 N   0  0  0  0  0  0  0  0  0  0  0  0
    5.7677   -8.2336    0.0000 C   0  0  0  0  0  0  0  0  0  0  0  0
    5.9062   -6.6163    0.0000 N   0  0  0  0  0  0  0  0  0  0  0  0
    5.2388   -4.5624    0.0000 C   0  0  0  0  0  0  0  0  0  0  0  0
    2.9444   -4.9194    0.0000 C   0  0  0  0  0  0  0  0  0  0  0  0
    2.2418   -4.7312    0.0000 C   0  0  0  0  0  0  0  0  0  0  0  0
    1.7275   -5.2455    0.0000 C   0  0  0  0  0  0  0  0  0  0  0  0
    1.9157   -5.9480    0.0000 C   0  0  0  0  0  0  0  0  0  0  0  0
    2.6183   -6.1363    0.0000 C   0  0  0  0  0  0  0  0  0  0  0  0
    1.0249   -5.0572    0.0000 C   0  0  0  0  0  0  0  0  0  0  0  0
  1  2  2  0  0  0  0
  2  3  1  0  0  0  0
  3  4  2  0  0  0  0
  4  5  1  0  0  0  0
  4  7  1  0  0  0  0
  5  6  2  0  0  0  0
  6  1  1  0  0  0  0
  7  8  1  0  0  0  0
  8  9  1  0  0  0  0
  8 11  2  0  0  0  0
  9 10  2  0  0  0  0
  9 12  1  0  0  0  0
 10  5  1  0  0  0  0
 12 13  2  0  0  0  0
 12 14  1  0  0  0  0
 13 15  1  0  0  0  0
 15 24  1  0  0  0  0
 16 17  1  0  0  0  0
 17 18  2  0  0  0  0
 17 34  1  0  0  0  0
 18 19  1  0  0  0  0
 18 21  1  0  0  0  0
 19 20  1  0  0  0  0
 20 16  2  0  0  0  0
 21 22  2  0  0  0  0
 22 23  1  0  0  0  0
 23 35  2  0  0  0  0
 24 25  2  0  0  0  0
 25 26  1  0  0  0  0
 26 27  2  0  0  0  0
 26 29  1  0  0  0  0
 27 28  1  0  0  0  0
 27 30  1  0  0  0  0
 28 24  1  0  0  0  0
 30 31  2  0  0  0  0
 30 32  1  0  0  0  0
 31 33  1  0  0  0  0
 33 20  1  0  0  0  0
 35 36  1  0  0  0  0
 36 37  2  0  0  0  0
 37 38  1  0  0  0  0
 37 40  1  0  0  0  0
 38 39  2  0  0  0  0
 39 23  1  0  0  0  0
M  END
>  <Name>
C1_8b

$$$$
C1_8c
 OpenBabel11182102372D

 40 44  0  0  0  0  0  0  0  0999 V2000
   23.2234   -9.1361    0.0000 C   0  0  0  0  0  0  0  0  0  0  0  0
   23.2234   -8.5189    0.0000 C   0  0  0  0  0  0  0  0  0  0  0  0
   22.6889   -8.2103    0.0000 C   0  0  0  0  0  0  0  0  0  0  0  0
   22.1543   -8.5189    0.0000 C   0  0  0  0  0  0  0  0  0  0  0  0
   22.1543   -9.1361    0.0000 C   0  0  0  0  0  0  0  0  0  0  0  0
   22.6889   -9.4447    0.0000 C   0  0  0  0  0  0  0  0  0  0  0  0
   21.6198   -8.2103    0.0000 O   0  0  0  0  0  0  0  0  0  0  0  0
   21.0852   -8.5189    0.0000 C   0  0  0  0  0  0  0  0  0  0  0  0
   21.0852   -9.1361    0.0000 C   0  0  0  0  0  0  0  0  0  0  0  0
   21.6198   -9.4447    0.0000 C   0  0  0  0  0  0  0  0  0  0  0  0
   20.5507   -8.2103    0.0000 O   0  0  0  0  0  0  0  0  0  0  0  0
   20.5507   -9.4447    0.0000 C   0  0  0  0  0  0  0  0  0  0  0  0
   20.0161   -9.1361    0.0000 N   0  0  0  0  0  0  0  0  0  0  0  0
   20.5507  -10.0620    0.0000 C   0  0  0  0  0  0  0  0  0  0  0  0
   19.4816   -9.4447    0.0000 N   0  0  0  0  0  0  0  0  0  0  0  0
   17.0725   -6.8434    0.0000 N   0  0  0  0  0  0  0  0  0  0  0  0
   16.5731   -6.4806    0.0000 C   0  0  0  0  0  0  0  0  0  0  0  0
   16.0738   -6.8434    0.0000 C   0  0  0  0  0  0  0  0  0  0  0  0
   16.2645   -7.4304    0.0000 S   0  0  0  0  0  0  0  0  0  0  0  0
   16.8817   -7.4304    0.0000 C   0  0  0  0  0  0  0  0  0  0  0  0
   15.4867   -6.6526    0.0000 N   0  0  0  0  0  0  0  0  0  0  0  0
   15.0503   -7.0891    0.0000 N   0  0  0  0  0  0  0  0  0  0  0  0
   14.4541   -6.9293    0.0000 C   0  0  0  0  0  0  0  0  0  0  0  0
   18.9470   -9.1361    0.0000 C   0  0  0  0  0  0  0  0  0  0  0  0
   18.8825   -8.5223    0.0000 N   0  0  0  0  0  0  0  0  0  0  0  0
   18.2788   -8.3939    0.0000 C   0  0  0  0  0  0  0  0  0  0  0  0
   17.9701   -8.9285    0.0000 C   0  0  0  0  0  0  0  0  0  0  0  0
   18.3832   -9.3872    0.0000 S   0  0  0  0  0  0  0  0  0  0  0  0
   18.4456   -7.7713    0.0000 C   0  0  0  0  0  0  0  0  0  0  0  0
   17.3563   -8.9930    0.0000 C   0  0  0  0  0  0  0  0  0  0  0  0
   16.9935   -8.4936    0.0000 N   0  0  0  0  0  0  0  0  0  0  0  0
   17.1052   -9.5569    0.0000 C   0  0  0  0  0  0  0  0  0  0  0  0
   17.2445   -7.9298    0.0000 N   0  0  0  0  0  0  0  0  0  0  0  0
   16.5731   -5.8633    0.0000 C   0  0  0  0  0  0  0  0  0  0  0  0
   14.2647   -6.2225    0.0000 C   0  0  0  0  0  0  0  0  0  0  0  0
   13.5578   -6.0331    0.0000 C   0  0  0  0  0  0  0  0  0  0  0  0
   13.0404   -6.5505    0.0000 C   0  0  0  0  0  0  0  0  0  0  0  0
   13.2298   -7.2574    0.0000 C   0  0  0  0  0  0  0  0  0  0  0  0
   13.9366   -7.4468    0.0000 C   0  0  0  0  0  0  0  0  0  0  0  0
   12.3335   -6.3612    0.0000 Cl  0  0  0  0  0  0  0  0  0  0  0  0
  1  2  2  0  0  0  0
  2  3  1  0  0  0  0
  3  4  2  0  0  0  0
  4  5  1  0  0  0  0
  4  7  1  0  0  0  0
  5  6  2  0  0  0  0
  6  1  1  0  0  0  0
  7  8  1  0  0  0  0
  8  9  1  0  0  0  0
  8 11  2  0  0  0  0
  9 10  2  0  0  0  0
  9 12  1  0  0  0  0
 10  5  1  0  0  0  0
 12 13  2  0  0  0  0
 12 14  1  0  0  0  0
 13 15  1  0  0  0  0
 15 24  1  0  0  0  0
 16 17  1  0  0  0  0
 17 18  2  0  0  0  0
 17 34  1  0  0  0  0
 18 19  1  0  0  0  0
 18 21  1  0  0  0  0
 19 20  1  0  0  0  0
 20 16  2  0  0  0  0
 21 22  2  0  0  0  0
 22 23  1  0  0  0  0
 23 35  2  0  0  0  0
 24 25  2  0  0  0  0
 25 26  1  0  0  0  0
 26 27  2  0  0  0  0
 26 29  1  0  0  0  0
 27 28  1  0  0  0  0
 27 30  1  0  0  0  0
 28 24  1  0  0  0  0
 30 31  2  0  0  0  0
 30 32  1  0  0  0  0
 31 33  1  0  0  0  0
 33 20  1  0  0  0  0
 35 36  1  0  0  0  0
 36 37  2  0  0  0  0
 37 38  1  0  0  0  0
 37 40  1  0  0  0  0
 38 39  2  0  0  0  0
 39 23  1  0  0  0  0
M  END
>  <Name>
C1_8c

$$$$
C1_8d
 OpenBabel11182102372D

 40 44  0  0  0  0  0  0  0  0999 V2000
   11.1391  -12.7683    0.0000 C   0  0  0  0  0  0  0  0  0  0  0  0
   11.1391  -12.1726    0.0000 C   0  0  0  0  0  0  0  0  0  0  0  0
   10.6233  -11.8748    0.0000 C   0  0  0  0  0  0  0  0  0  0  0  0
   10.1074  -12.1726    0.0000 C   0  0  0  0  0  0  0  0  0  0  0  0
   10.1074  -12.7683    0.0000 C   0  0  0  0  0  0  0  0  0  0  0  0
   10.6233  -13.0661    0.0000 C   0  0  0  0  0  0  0  0  0  0  0  0
    9.5916  -11.8748    0.0000 O   0  0  0  0  0  0  0  0  0  0  0  0
    9.0757  -12.1726    0.0000 C   0  0  0  0  0  0  0  0  0  0  0  0
    9.0757  -12.7683    0.0000 C   0  0  0  0  0  0  0  0  0  0  0  0
    9.5916  -13.0661    0.0000 C   0  0  0  0  0  0  0  0  0  0  0  0
    8.5598  -11.8748    0.0000 O   0  0  0  0  0  0  0  0  0  0  0  0
    8.5598  -13.0661    0.0000 C   0  0  0  0  0  0  0  0  0  0  0  0
    8.0440  -12.7683    0.0000 N   0  0  0  0  0  0  0  0  0  0  0  0
    8.5598  -13.6618    0.0000 C   0  0  0  0  0  0  0  0  0  0  0  0
    7.5281  -13.0661    0.0000 N   0  0  0  0  0  0  0  0  0  0  0  0
    5.2032  -10.5557    0.0000 N   0  0  0  0  0  0  0  0  0  0  0  0
    4.7213  -10.2056    0.0000 C   0  0  0  0  0  0  0  0  0  0  0  0
    4.2394  -10.5557    0.0000 C   0  0  0  0  0  0  0  0  0  0  0  0
    4.4234  -11.1222    0.0000 S   0  0  0  0  0  0  0  0  0  0  0  0
    5.0191  -11.1222    0.0000 C   0  0  0  0  0  0  0  0  0  0  0  0
    3.6729  -10.3716    0.0000 N   0  0  0  0  0  0  0  0  0  0  0  0
    3.2517  -10.7928    0.0000 N   0  0  0  0  0  0  0  0  0  0  0  0
    2.6763  -10.6387    0.0000 C   0  0  0  0  0  0  0  0  0  0  0  0
    7.0122  -12.7683    0.0000 C   0  0  0  0  0  0  0  0  0  0  0  0
    6.9500  -12.1759    0.0000 N   0  0  0  0  0  0  0  0  0  0  0  0
    6.3673  -12.0521    0.0000 C   0  0  0  0  0  0  0  0  0  0  0  0
    6.0695  -12.5679    0.0000 C   0  0  0  0  0  0  0  0  0  0  0  0
    6.4681  -13.0106    0.0000 S   0  0  0  0  0  0  0  0  0  0  0  0
    6.5283  -11.4511    0.0000 C   0  0  0  0  0  0  0  0  0  0  0  0
    5.4771  -12.6302    0.0000 C   0  0  0  0  0  0  0  0  0  0  0  0
    5.1270  -12.1483    0.0000 N   0  0  0  0  0  0  0  0  0  0  0  0
    5.2348  -13.1744    0.0000 C   0  0  0  0  0  0  0  0  0  0  0  0
    5.3692  -11.6041    0.0000 N   0  0  0  0  0  0  0  0  0  0  0  0
    4.7213   -9.6099    0.0000 C   0  0  0  0  0  0  0  0  0  0  0  0
    2.4935   -9.9565    0.0000 C   0  0  0  0  0  0  0  0  0  0  0  0
    1.8114   -9.7737    0.0000 C   0  0  0  0  0  0  0  0  0  0  0  0
    1.3120  -10.2731    0.0000 C   0  0  0  0  0  0  0  0  0  0  0  0
    1.4948  -10.9552    0.0000 C   0  0  0  0  0  0  0  0  0  0  0  0
    2.1769  -11.1380    0.0000 C   0  0  0  0  0  0  0  0  0  0  0  0
    1.6286   -9.0916    0.0000 Cl  0  0  0  0  0  0  0  0  0  0  0  0
  1  2  2  0  0  0  0
  2  3  1  0  0  0  0
  3  4  2  0  0  0  0
  4  5  1  0  0  0  0
  4  7  1  0  0  0  0
  5  6  2  0  0  0  0
  6  1  1  0  0  0  0
  7  8  1  0  0  0  0
  8  9  1  0  0  0  0
  8 11  2  0  0  0  0
  9 10  2  0  0  0  0
  9 12  1  0  0  0  0
 10  5  1  0  0  0  0
 12 13  2  0  0  0  0
 12 14  1  0  0  0  0
 13 15  1  0  0  0  0
 15 24  1  0  0  0  0
 16 17  1  0  0  0  0
 17 18  2  0  0  0  0
 17 34  1  0  0  0  0
 18 19  1  0  0  0  0
 18 21  1  0  0  0  0
 19 20  1  0  0  0  0
 20 16  2  0  0  0  0
 21 22  2  0  0  0  0
 22 23  1  0  0  0  0
 23 35  2  0  0  0  0
 24 25  2  0  0  0  0
 25 26  1  0  0  0  0
 26 27  2  0  0  0  0
 26 29  1  0  0  0  0
 27 28  1  0  0  0  0
 27 30  1  0  0  0  0
 28 24  1  0  0  0  0
 30 31  2  0  0  0  0
 30 32  1  0  0  0  0
 31 33  1  0  0  0  0
 33 20  1  0  0  0  0
 35 36  1  0  0  0  0
 36 37  2  0  0  0  0
 36 40  1  0  0  0  0
 37 38  1  0  0  0  0
 38 39  2  0  0  0  0
 39 23  1  0  0  0  0
M  END
>  <Name>
C1_8d

$$$$
C1_8e
 OpenBabel11182102372D

 41 45  0  0  0  0  0  0  0  0999 V2000
   23.7609  -14.0503    0.0000 C   0  0  0  0  0  0  0  0  0  0  0  0
   23.7609  -13.4432    0.0000 C   0  0  0  0  0  0  0  0  0  0  0  0
   23.2352  -13.1397    0.0000 C   0  0  0  0  0  0  0  0  0  0  0  0
   22.7095  -13.4432    0.0000 C   0  0  0  0  0  0  0  0  0  0  0  0
   22.7095  -14.0503    0.0000 C   0  0  0  0  0  0  0  0  0  0  0  0
   23.2352  -14.3538    0.0000 C   0  0  0  0  0  0  0  0  0  0  0  0
   22.1837  -13.1397    0.0000 O   0  0  0  0  0  0  0  0  0  0  0  0
   21.6580  -13.4432    0.0000 C   0  0  0  0  0  0  0  0  0  0  0  0
   21.6580  -14.0503    0.0000 C   0  0  0  0  0  0  0  0  0  0  0  0
   22.1837  -14.3538    0.0000 C   0  0  0  0  0  0  0  0  0  0  0  0
   21.1323  -13.1397    0.0000 O   0  0  0  0  0  0  0  0  0  0  0  0
   21.1323  -14.3538    0.0000 C   0  0  0  0  0  0  0  0  0  0  0  0
   20.6066  -14.0503    0.0000 N   0  0  0  0  0  0  0  0  0  0  0  0
   21.1323  -14.9608    0.0000 C   0  0  0  0  0  0  0  0  0  0  0  0
   20.0809  -14.3538    0.0000 N   0  0  0  0  0  0  0  0  0  0  0  0
   17.7117  -11.7954    0.0000 N   0  0  0  0  0  0  0  0  0  0  0  0
   17.2206  -11.4386    0.0000 C   0  0  0  0  0  0  0  0  0  0  0  0
   16.7295  -11.7954    0.0000 C   0  0  0  0  0  0  0  0  0  0  0  0
   16.9170  -12.3728    0.0000 S   0  0  0  0  0  0  0  0  0  0  0  0
   17.5241  -12.3728    0.0000 C   0  0  0  0  0  0  0  0  0  0  0  0
   16.1521  -11.6079    0.0000 N   0  0  0  0  0  0  0  0  0  0  0  0
   15.7229  -12.0371    0.0000 N   0  0  0  0  0  0  0  0  0  0  0  0
   15.1366  -11.8800    0.0000 C   0  0  0  0  0  0  0  0  0  0  0  0
   19.5552  -14.0503    0.0000 C   0  0  0  0  0  0  0  0  0  0  0  0
   19.4918  -13.4466    0.0000 N   0  0  0  0  0  0  0  0  0  0  0  0
   18.8980  -13.3204    0.0000 C   0  0  0  0  0  0  0  0  0  0  0  0
   18.5945  -13.8461    0.0000 C   0  0  0  0  0  0  0  0  0  0  0  0
   19.0007  -14.2972    0.0000 S   0  0  0  0  0  0  0  0  0  0  0  0
   19.0621  -12.7080    0.0000 C   0  0  0  0  0  0  0  0  0  0  0  0
   17.9908  -13.9095    0.0000 C   0  0  0  0  0  0  0  0  0  0  0  0
   17.6340  -13.4184    0.0000 N   0  0  0  0  0  0  0  0  0  0  0  0
   17.7439  -14.4641    0.0000 C   0  0  0  0  0  0  0  0  0  0  0  0
   17.8809  -12.8639    0.0000 N   0  0  0  0  0  0  0  0  0  0  0  0
   17.2206  -10.8316    0.0000 C   0  0  0  0  0  0  0  0  0  0  0  0
   14.9503  -11.1848    0.0000 C   0  0  0  0  0  0  0  0  0  0  0  0
   14.2551  -10.9986    0.0000 C   0  0  0  0  0  0  0  0  0  0  0  0
   13.7463  -11.5075    0.0000 C   0  0  0  0  0  0  0  0  0  0  0  0
   13.9325  -12.2026    0.0000 C   0  0  0  0  0  0  0  0  0  0  0  0
   14.6277  -12.3889    0.0000 C   0  0  0  0  0  0  0  0  0  0  0  0
   15.4592  -10.6759    0.0000 Cl  0  0  0  0  0  0  0  0  0  0  0  0
   13.0511  -11.3212    0.0000 Cl  0  0  0  0  0  0  0  0  0  0  0  0
  1  2  2  0  0  0  0
  2  3  1  0  0  0  0
  3  4  2  0  0  0  0
  4  5  1  0  0  0  0
  4  7  1  0  0  0  0
  5  6  2  0  0  0  0
  6  1  1  0  0  0  0
  7  8  1  0  0  0  0
  8  9  1  0  0  0  0
  8 11  2  0  0  0  0
  9 10  2  0  0  0  0
  9 12  1  0  0  0  0
 10  5  1  0  0  0  0
 12 13  2  0  0  0  0
 12 14  1  0  0  0  0
 13 15  1  0  0  0  0
 15 24  1  0  0  0  0
 16 17  1  0  0  0  0
 17 18  2  0  0  0  0
 17 34  1  0  0  0  0
 18 19  1  0  0  0  0
 18 21  1  0  0  0  0
 19 20  1  0  0  0  0
 20 16  2  0  0  0  0
 21 22  2  0  0  0  0
 22 23  1  0  0  0  0
 23 35  2  0  0  0  0
 24 25  2  0  0  0  0
 25 26  1  0  0  0  0
 26 27  2  0  0  0  0
 26 29  1  0  0  0  0
 27 28  1  0  0  0  0
 27 30  1  0  0  0  0
 28 24  1  0  0  0  0
 30 31  2  0  0  0  0
 30 32  1  0  0  0  0
 31 33  1  0  0  0  0
 33 20  1  0  0  0  0
 35 36  1  0  0  0  0
 35 40  1  0  0  0  0
 36 37  2  0  0  0  0
 37 38  1  0  0  0  0
 37 41  1  0  0  0  0
 38 39  2  0  0  0  0
 39 23  1  0  0  0  0
M  END
>  <Name>
C1_8e

$$$$
C1_8f
 OpenBabel11182102372D

 42 46  0  0  0  0  0  0  0  0999 V2000
   13.1452  -18.1865    0.0000 C   0  0  0  0  0  0  0  0  0  0  0  0
   13.1452  -17.4906    0.0000 C   0  0  0  0  0  0  0  0  0  0  0  0
   12.5426  -17.1426    0.0000 C   0  0  0  0  0  0  0  0  0  0  0  0
   11.9400  -17.4906    0.0000 C   0  0  0  0  0  0  0  0  0  0  0  0
   11.9400  -18.1865    0.0000 C   0  0  0  0  0  0  0  0  0  0  0  0
   12.5426  -18.5344    0.0000 C   0  0  0  0  0  0  0  0  0  0  0  0
   11.3373  -17.1426    0.0000 O   0  0  0  0  0  0  0  0  0  0  0  0
   10.7347  -17.4906    0.0000 C   0  0  0  0  0  0  0  0  0  0  0  0
   10.7347  -18.1865    0.0000 C   0  0  0  0  0  0  0  0  0  0  0  0
   11.3373  -18.5344    0.0000 C   0  0  0  0  0  0  0  0  0  0  0  0
   10.1320  -17.1426    0.0000 O   0  0  0  0  0  0  0  0  0  0  0  0
   10.1320  -18.5344    0.0000 C   0  0  0  0  0  0  0  0  0  0  0  0
    9.5294  -18.1865    0.0000 N   0  0  0  0  0  0  0  0  0  0  0  0
   10.1320  -19.2303    0.0000 C   0  0  0  0  0  0  0  0  0  0  0  0
    8.9267  -18.5344    0.0000 N   0  0  0  0  0  0  0  0  0  0  0  0
    6.2107  -15.6016    0.0000 N   0  0  0  0  0  0  0  0  0  0  0  0
    5.6477  -15.1926    0.0000 C   0  0  0  0  0  0  0  0  0  0  0  0
    5.0848  -15.6016    0.0000 C   0  0  0  0  0  0  0  0  0  0  0  0
    5.2998  -16.2634    0.0000 S   0  0  0  0  0  0  0  0  0  0  0  0
    5.9957  -16.2634    0.0000 C   0  0  0  0  0  0  0  0  0  0  0  0
    4.4229  -15.3866    0.0000 N   0  0  0  0  0  0  0  0  0  0  0  0
    3.9309  -15.8786    0.0000 N   0  0  0  0  0  0  0  0  0  0  0  0
    3.2587  -15.6985    0.0000 C   0  0  0  0  0  0  0  0  0  0  0  0
    8.3241  -18.1865    0.0000 C   0  0  0  0  0  0  0  0  0  0  0  0
    8.2513  -17.4944    0.0000 N   0  0  0  0  0  0  0  0  0  0  0  0
    7.5707  -17.3497    0.0000 C   0  0  0  0  0  0  0  0  0  0  0  0
    7.2227  -17.9524    0.0000 C   0  0  0  0  0  0  0  0  0  0  0  0
    7.6884  -18.4695    0.0000 S   0  0  0  0  0  0  0  0  0  0  0  0
    7.7588  -16.6477    0.0000 C   0  0  0  0  0  0  0  0  0  0  0  0
    6.5307  -18.0251    0.0000 C   0  0  0  0  0  0  0  0  0  0  0  0
    6.1217  -17.4621    0.0000 N   0  0  0  0  0  0  0  0  0  0  0  0
    6.2476  -18.6608    0.0000 C   0  0  0  0  0  0  0  0  0  0  0  0
    6.4047  -16.8264    0.0000 N   0  0  0  0  0  0  0  0  0  0  0  0
    5.6477  -14.4967    0.0000 C   0  0  0  0  0  0  0  0  0  0  0  0
    3.0452  -14.9016    0.0000 C   0  0  0  0  0  0  0  0  0  0  0  0
    2.2483  -14.6881    0.0000 C   0  0  0  0  0  0  0  0  0  0  0  0
    1.6649  -15.2715    0.0000 C   0  0  0  0  0  0  0  0  0  0  0  0
    1.8785  -16.0684    0.0000 C   0  0  0  0  0  0  0  0  0  0  0  0
    2.6754  -16.2819    0.0000 C   0  0  0  0  0  0  0  0  0  0  0  0
    0.8681  -15.0580    0.0000 N   0  3  0  0  0  0  0  0  0  0  0  0
    0.6549  -14.2625    0.0000 O   0  0  0  0  0  0  0  0  0  0  0  0
    0.2857  -15.6403    0.0000 O   0  5  0  0  0  0  0  0  0  0  0  0
  1  2  2  0  0  0  0
  2  3  1  0  0  0  0
  3  4  2  0  0  0  0
  4  5  1  0  0  0  0
  4  7  1  0  0  0  0
  5  6  2  0  0  0  0
  6  1  1  0  0  0  0
  7  8  1  0  0  0  0
  8  9  1  0  0  0  0
  8 11  2  0  0  0  0
  9 10  2  0  0  0  0
  9 12  1  0  0  0  0
 10  5  1  0  0  0  0
 12 13  2  0  0  0  0
 12 14  1  0  0  0  0
 13 15  1  0  0  0  0
 15 24  1  0  0  0  0
 16 17  1  0  0  0  0
 17 18  2  0  0  0  0
 17 34  1  0  0  0  0
 18 19  1  0  0  0  0
 18 21  1  0  0  0  0
 19 20  1  0  0  0  0
 20 16  2  0  0  0  0
 21 22  2  0  0  0  0
 22 23  1  0  0  0  0
 23 35  2  0  0  0  0
 24 25  2  0  0  0  0
 25 26  1  0  0  0  0
 26 27  2  0  0  0  0
 26 29  1  0  0  0  0
 27 28  1  0  0  0  0
 27 30  1  0  0  0  0
 28 24  1  0  0  0  0
 30 31  2  0  0  0  0
 30 32  1  0  0  0  0
 31 33  1  0  0  0  0
 33 20  1  0  0  0  0
 35 36  1  0  0  0  0
 36 37  2  0  0  0  0
 37 38  1  0  0  0  0
 37 40  1  0  0  0  0
 38 39  2  0  0  0  0
 39 23  1  0  0  0  0
 40 41  2  0  0  0  0
 40 42  1  0  0  0  0
M  CHG  2  40   1  42  -1
M  END
>  <Name>
C1_8f

$$$$
C2_12
 OpenBabel11182102372D

 36 41  0  0  0  0  0  0  0  0999 V2000
   26.2908   -3.0988    0.0000 C   0  0  0  0  0  0  0  0  0  0  0  0
   26.2908   -3.7927    0.0000 C   0  0  0  0  0  0  0  0  0  0  0  0
   26.8917   -4.1396    0.0000 C   0  0  0  0  0  0  0  0  0  0  0  0
   27.4926   -3.7927    0.0000 C   0  0  0  0  0  0  0  0  0  0  0  0
   27.4926   -3.0988    0.0000 C   0  0  0  0  0  0  0  0  0  0  0  0
   26.8917   -2.7519    0.0000 C   0  0  0  0  0  0  0  0  0  0  0  0
   28.0936   -4.1396    0.0000 O   0  0  0  0  0  0  0  0  0  0  0  0
   28.6945   -3.7927    0.0000 C   0  0  0  0  0  0  0  0  0  0  0  0
   28.6945   -3.0988    0.0000 C   0  0  0  0  0  0  0  0  0  0  0  0
   28.0936   -2.7519    0.0000 C   0  0  0  0  0  0  0  0  0  0  0  0
   29.2954   -4.1396    0.0000 O   0  0  0  0  0  0  0  0  0  0  0  0
   29.2954   -2.7519    0.0000 C   0  0  0  0  0  0  0  0  0  0  0  0
   29.8963   -3.0988    0.0000 N   0  0  0  0  0  0  0  0  0  0  0  0
   29.2954   -2.0580    0.0000 C   0  0  0  0  0  0  0  0  0  0  0  0
   30.4972   -2.7519    0.0000 N   0  0  0  0  0  0  0  0  0  0  0  0
   31.0982   -3.0988    0.0000 C   0  0  0  0  0  0  0  0  0  0  0  0
   31.1707   -3.7889    0.0000 N   0  0  0  0  0  0  0  0  0  0  0  0
   31.8494   -3.9331    0.0000 C   0  0  0  0  0  0  0  0  0  0  0  0
   32.1964   -3.3322    0.0000 C   0  0  0  0  0  0  0  0  0  0  0  0
   31.7321   -2.8166    0.0000 S   0  0  0  0  0  0  0  0  0  0  0  0
   32.8864   -3.2597    0.0000 C   0  0  0  0  0  0  0  0  0  0  0  0
   33.2943   -3.8211    0.0000 C   0  0  0  0  0  0  0  0  0  0  0  0
   32.1316   -4.5670    0.0000 C   0  0  0  0  0  0  0  0  0  0  0  0
   33.9844   -3.7485    0.0000 C   0  0  0  0  0  0  0  0  0  0  0  0
   34.3922   -4.3099    0.0000 C   0  0  0  0  0  0  0  0  0  0  0  0
   34.1100   -4.9438    0.0000 C   0  0  0  0  0  0  0  0  0  0  0  0
   34.5178   -5.5051    0.0000 C   0  0  0  0  0  0  0  0  0  0  0  0
   35.2079   -5.4326    0.0000 C   0  0  0  0  0  0  0  0  0  0  0  0
   35.4902   -4.7987    0.0000 C   0  0  0  0  0  0  0  0  0  0  0  0
   35.0823   -4.2374    0.0000 C   0  0  0  0  0  0  0  0  0  0  0  0
   33.4021   -1.5276    0.0000 C   0  0  0  0  0  0  0  0  0  0  0  0
   32.8864   -1.9919    0.0000 N   0  0  0  0  0  0  0  0  0  0  0  0
   33.1687   -2.6258    0.0000 N   0  0  0  0  0  0  0  0  0  0  0  0
   33.8587   -2.5533    0.0000 C   0  0  0  0  0  0  0  0  0  0  0  0
   34.0030   -1.8745    0.0000 N   0  0  0  0  0  0  0  0  0  0  0  0
   34.2666   -3.1146    0.0000 N   0  0  0  0  0  0  0  0  0  0  0  0
  1  2  2  0  0  0  0
  2  3  1  0  0  0  0
  3  4  2  0  0  0  0
  4  5  1  0  0  0  0
  4  7  1  0  0  0  0
  5  6  2  0  0  0  0
  6  1  1  0  0  0  0
  7  8  1  0  0  0  0
  8  9  1  0  0  0  0
  8 11  2  0  0  0  0
  9 10  2  0  0  0  0
  9 12  1  0  0  0  0
 10  5  1  0  0  0  0
 12 13  2  0  0  0  0
 12 14  1  0  0  0  0
 13 15  1  0  0  0  0
 15 16  1  0  0  0  0
 16 17  2  0  0  0  0
 17 18  1  0  0  0  0
 18 19  2  0  0  0  0
 18 23  1  0  0  0  0
 19 20  1  0  0  0  0
 19 21  1  0  0  0  0
 20 16  1  0  0  0  0
 21 22  2  0  0  0  0
 21 33  1  0  0  0  0
 22 24  1  0  0  0  0
 24 25  1  0  0  0  0
 25 26  2  0  0  0  0
 26 27  1  0  0  0  0
 27 28  2  0  0  0  0
 28 29  1  0  0  0  0
 29 30  2  0  0  0  0
 30 25  1  0  0  0  0
 31 32  2  0  0  0  0
 32 33  1  0  0  0  0
 33 34  1  0  0  0  0
 34 35  2  0  0  0  0
 34 36  1  0  0  0  0
 35 31  1  0  0  0  0
 36 24  2  0  0  0  0
M  END
>  <Name>
C2_12

$$$$
C2_15
 OpenBabel11182102372D

 36 41  0  0  0  0  0  0  0  0999 V2000
   26.4610   -8.6570    0.0000 C   0  0  0  0  0  0  0  0  0  0  0  0
   26.4610   -9.3508    0.0000 C   0  0  0  0  0  0  0  0  0  0  0  0
   27.0619   -9.6978    0.0000 C   0  0  0  0  0  0  0  0  0  0  0  0
   27.6628   -9.3508    0.0000 C   0  0  0  0  0  0  0  0  0  0  0  0
   27.6628   -8.6570    0.0000 C   0  0  0  0  0  0  0  0  0  0  0  0
   27.0619   -8.3100    0.0000 C   0  0  0  0  0  0  0  0  0  0  0  0
   28.2637   -9.6978    0.0000 O   0  0  0  0  0  0  0  0  0  0  0  0
   28.8646   -9.3508    0.0000 C   0  0  0  0  0  0  0  0  0  0  0  0
   28.8646   -8.6570    0.0000 C   0  0  0  0  0  0  0  0  0  0  0  0
   28.2637   -8.3100    0.0000 C   0  0  0  0  0  0  0  0  0  0  0  0
   29.4656   -9.6978    0.0000 O   0  0  0  0  0  0  0  0  0  0  0  0
   29.4656   -8.3100    0.0000 C   0  0  0  0  0  0  0  0  0  0  0  0
   30.0665   -8.6570    0.0000 N   0  0  0  0  0  0  0  0  0  0  0  0
   29.4656   -7.6161    0.0000 C   0  0  0  0  0  0  0  0  0  0  0  0
   30.6674   -8.3100    0.0000 N   0  0  0  0  0  0  0  0  0  0  0  0
   31.2683   -8.6570    0.0000 C   0  0  0  0  0  0  0  0  0  0  0  0
   31.3408   -9.3470    0.0000 N   0  0  0  0  0  0  0  0  0  0  0  0
   32.0196   -9.4913    0.0000 C   0  0  0  0  0  0  0  0  0  0  0  0
   32.3665   -8.8904    0.0000 C   0  0  0  0  0  0  0  0  0  0  0  0
   31.9022   -8.3747    0.0000 S   0  0  0  0  0  0  0  0  0  0  0  0
   33.0566   -8.8179    0.0000 C   0  0  0  0  0  0  0  0  0  0  0  0
   33.4644   -9.3792    0.0000 C   0  0  0  0  0  0  0  0  0  0  0  0
   32.3018  -10.1252    0.0000 C   0  0  0  0  0  0  0  0  0  0  0  0
   34.1545   -9.3067    0.0000 C   0  0  0  0  0  0  0  0  0  0  0  0
   34.5624   -9.8681    0.0000 C   0  0  0  0  0  0  0  0  0  0  0  0
   34.2802  -10.5020    0.0000 C   0  0  0  0  0  0  0  0  0  0  0  0
   34.6880  -11.0633    0.0000 C   0  0  0  0  0  0  0  0  0  0  0  0
   35.3781  -10.9908    0.0000 C   0  0  0  0  0  0  0  0  0  0  0  0
   35.6603  -10.3569    0.0000 C   0  0  0  0  0  0  0  0  0  0  0  0
   35.2525   -9.7955    0.0000 C   0  0  0  0  0  0  0  0  0  0  0  0
   33.5722   -7.0858    0.0000 N   0  0  0  0  0  0  0  0  0  0  0  0
   33.0566   -7.5501    0.0000 N   0  0  0  0  0  0  0  0  0  0  0  0
   33.3388   -8.1840    0.0000 N   0  0  0  0  0  0  0  0  0  0  0  0
   34.0289   -8.1114    0.0000 C   0  0  0  0  0  0  0  0  0  0  0  0
   34.1732   -7.4327    0.0000 N   0  0  0  0  0  0  0  0  0  0  0  0
   34.4368   -8.6728    0.0000 N   0  0  0  0  0  0  0  0  0  0  0  0
  1  2  2  0  0  0  0
  2  3  1  0  0  0  0
  3  4  2  0  0  0  0
  4  5  1  0  0  0  0
  4  7  1  0  0  0  0
  5  6  2  0  0  0  0
  6  1  1  0  0  0  0
  7  8  1  0  0  0  0
  8  9  1  0  0  0  0
  8 11  2  0  0  0  0
  9 10  2  0  0  0  0
  9 12  1  0  0  0  0
 10  5  1  0  0  0  0
 12 13  2  0  0  0  0
 12 14  1  0  0  0  0
 13 15  1  0  0  0  0
 15 16  1  0  0  0  0
 16 17  2  0  0  0  0
 17 18  1  0  0  0  0
 18 19  2  0  0  0  0
 18 23  1  0  0  0  0
 19 20  1  0  0  0  0
 19 21  1  0  0  0  0
 20 16  1  0  0  0  0
 21 22  2  0  0  0  0
 21 33  1  0  0  0  0
 22 24  1  0  0  0  0
 24 25  1  0  0  0  0
 25 26  2  0  0  0  0
 26 27  1  0  0  0  0
 27 28  2  0  0  0  0
 28 29  1  0  0  0  0
 29 30  2  0  0  0  0
 30 25  1  0  0  0  0
 31 32  2  0  0  0  0
 32 33  1  0  0  0  0
 33 34  1  0  0  0  0
 34 35  2  0  0  0  0
 34 36  1  0  0  0  0
 35 31  1  0  0  0  0
 36 24  2  0  0  0  0
M  END
>  <Name>
C2_15

$$$$
C2_18
 OpenBabel11182102372D

 40 46  0  0  0  0  0  0  0  0999 V2000
   26.8806  -13.4897    0.0000 C   0  0  0  0  0  0  0  0  0  0  0  0
   26.8081  -14.1798    0.0000 C   0  0  0  0  0  0  0  0  0  0  0  0
   27.3695  -14.5876    0.0000 C   0  0  0  0  0  0  0  0  0  0  0  0
   28.0033  -14.3054    0.0000 C   0  0  0  0  0  0  0  0  0  0  0  0
   28.0759  -13.6153    0.0000 C   0  0  0  0  0  0  0  0  0  0  0  0
   27.5145  -13.2075    0.0000 C   0  0  0  0  0  0  0  0  0  0  0  0
   28.5647  -14.7133    0.0000 O   0  0  0  0  0  0  0  0  0  0  0  0
   29.1986  -14.4310    0.0000 C   0  0  0  0  0  0  0  0  0  0  0  0
   29.2711  -13.7410    0.0000 C   0  0  0  0  0  0  0  0  0  0  0  0
   28.7098  -13.3331    0.0000 C   0  0  0  0  0  0  0  0  0  0  0  0
   29.7600  -14.8389    0.0000 O   0  0  0  0  0  0  0  0  0  0  0  0
   29.9050  -13.4587    0.0000 C   0  0  0  0  0  0  0  0  0  0  0  0
   30.4664  -13.8666    0.0000 N   0  0  0  0  0  0  0  0  0  0  0  0
   29.9776  -12.7687    0.0000 C   0  0  0  0  0  0  0  0  0  0  0  0
   31.1003  -13.5844    0.0000 N   0  0  0  0  0  0  0  0  0  0  0  0
   31.6616  -13.9922    0.0000 C   0  0  0  0  0  0  0  0  0  0  0  0
   31.6616  -14.6861    0.0000 N   0  0  0  0  0  0  0  0  0  0  0  0
   32.3216  -14.9005    0.0000 C   0  0  0  0  0  0  0  0  0  0  0  0
   32.7294  -14.3392    0.0000 C   0  0  0  0  0  0  0  0  0  0  0  0
   32.3216  -13.7778    0.0000 S   0  0  0  0  0  0  0  0  0  0  0  0
   33.4233  -14.3392    0.0000 C   0  0  0  0  0  0  0  0  0  0  0  0
   33.7702  -14.9401    0.0000 C   0  0  0  0  0  0  0  0  0  0  0  0
   32.5360  -15.5604    0.0000 C   0  0  0  0  0  0  0  0  0  0  0  0
   34.4641  -14.9401    0.0000 C   0  0  0  0  0  0  0  0  0  0  0  0
   34.8111  -15.5410    0.0000 C   0  0  0  0  0  0  0  0  0  0  0  0
   34.4641  -16.1419    0.0000 C   0  0  0  0  0  0  0  0  0  0  0  0
   34.8111  -16.7428    0.0000 C   0  0  0  0  0  0  0  0  0  0  0  0
   35.5050  -16.7428    0.0000 C   0  0  0  0  0  0  0  0  0  0  0  0
   35.8519  -16.1419    0.0000 C   0  0  0  0  0  0  0  0  0  0  0  0
   35.5050  -15.5410    0.0000 C   0  0  0  0  0  0  0  0  0  0  0  0
   34.1172  -12.6705    0.0000 C   0  0  0  0  0  0  0  0  0  0  0  0
   33.5558  -13.0783    0.0000 C   0  0  0  0  0  0  0  0  0  0  0  0
   33.7702  -13.7382    0.0000 N   0  0  0  0  0  0  0  0  0  0  0  0
   34.4641  -13.7382    0.0000 C   0  0  0  0  0  0  0  0  0  0  0  0
   34.6786  -13.0783    0.0000 N   0  0  0  0  0  0  0  0  0  0  0  0
   34.8111  -14.3392    0.0000 N   0  0  0  0  0  0  0  0  0  0  0  0
   34.0447  -11.9804    0.0000 C   0  0  0  0  0  0  0  0  0  0  0  0
   33.4108  -11.6982    0.0000 C   0  0  0  0  0  0  0  0  0  0  0  0
   32.8494  -12.1060    0.0000 C   0  0  0  0  0  0  0  0  0  0  0  0
   32.9219  -12.7961    0.0000 C   0  0  0  0  0  0  0  0  0  0  0  0
  1  2  2  0  0  0  0
  2  3  1  0  0  0  0
  3  4  2  0  0  0  0
  4  5  1  0  0  0  0
  4  7  1  0  0  0  0
  5  6  2  0  0  0  0
  6  1  1  0  0  0  0
  7  8  1  0  0  0  0
  8  9  1  0  0  0  0
  8 11  2  0  0  0  0
  9 10  2  0  0  0  0
  9 12  1  0  0  0  0
 10  5  1  0  0  0  0
 12 13  2  0  0  0  0
 12 14  1  0  0  0  0
 13 15  1  0  0  0  0
 15 16  1  0  0  0  0
 16 17  2  0  0  0  0
 17 18  1  0  0  0  0
 18 19  2  0  0  0  0
 18 23  1  0  0  0  0
 19 20  1  0  0  0  0
 19 21  1  0  0  0  0
 20 16  1  0  0  0  0
 21 22  2  0  0  0  0
 22 24  1  0  0  0  0
 24 25  1  0  0  0  0
 25 26  2  0  0  0  0
 26 27  1  0  0  0  0
 27 28  2  0  0  0  0
 28 29  1  0  0  0  0
 29 30  2  0  0  0  0
 30 25  1  0  0  0  0
 31 32  2  0  0  0  0
 31 37  1  0  0  0  0
 32 33  1  0  0  0  0
 33 21  1  0  0  0  0
 33 34  1  0  0  0  0
 34 35  2  0  0  0  0
 34 36  1  0  0  0  0
 35 31  1  0  0  0  0
 36 24  2  0  0  0  0
 37 38  2  0  0  0  0
 38 39  1  0  0  0  0
 39 40  2  0  0  0  0
 40 32  1  0  0  0  0
M  END
>  <Name>
C2_18

$$$$
C2_20
 OpenBabel11182102372D

 36 41  0  0  0  0  0  0  0  0999 V2000
   26.8867  -18.7895    0.0000 C   0  0  0  0  0  0  0  0  0  0  0  0
   26.8867  -19.4612    0.0000 C   0  0  0  0  0  0  0  0  0  0  0  0
   27.4684  -19.7970    0.0000 C   0  0  0  0  0  0  0  0  0  0  0  0
   28.0501  -19.4612    0.0000 C   0  0  0  0  0  0  0  0  0  0  0  0
   28.0501  -18.7895    0.0000 C   0  0  0  0  0  0  0  0  0  0  0  0
   27.4684  -18.4536    0.0000 C   0  0  0  0  0  0  0  0  0  0  0  0
   28.6318  -19.7970    0.0000 O   0  0  0  0  0  0  0  0  0  0  0  0
   29.2135  -19.4612    0.0000 C   0  0  0  0  0  0  0  0  0  0  0  0
   29.2135  -18.7895    0.0000 C   0  0  0  0  0  0  0  0  0  0  0  0
   28.6318  -18.4536    0.0000 C   0  0  0  0  0  0  0  0  0  0  0  0
   29.7952  -19.7970    0.0000 O   0  0  0  0  0  0  0  0  0  0  0  0
   29.7952  -18.4536    0.0000 C   0  0  0  0  0  0  0  0  0  0  0  0
   30.3769  -18.7895    0.0000 N   0  0  0  0  0  0  0  0  0  0  0  0
   29.7952  -17.7820    0.0000 C   0  0  0  0  0  0  0  0  0  0  0  0
   30.9586  -18.4536    0.0000 N   0  0  0  0  0  0  0  0  0  0  0  0
   31.5403  -18.7895    0.0000 C   0  0  0  0  0  0  0  0  0  0  0  0
   31.6105  -19.4575    0.0000 N   0  0  0  0  0  0  0  0  0  0  0  0
   32.2675  -19.5971    0.0000 C   0  0  0  0  0  0  0  0  0  0  0  0
   32.6033  -19.0155    0.0000 C   0  0  0  0  0  0  0  0  0  0  0  0
   32.1539  -18.5163    0.0000 S   0  0  0  0  0  0  0  0  0  0  0  0
   33.2714  -18.9452    0.0000 C   0  0  0  0  0  0  0  0  0  0  0  0
   33.6662  -19.4886    0.0000 C   0  0  0  0  0  0  0  0  0  0  0  0
   32.5407  -20.2108    0.0000 C   0  0  0  0  0  0  0  0  0  0  0  0
   34.3342  -19.4184    0.0000 C   0  0  3  0  0  0  0  0  0  0  0  0
   34.7290  -19.9618    0.0000 C   0  0  0  0  0  0  0  0  0  0  0  0
   34.4558  -20.5755    0.0000 C   0  0  0  0  0  0  0  0  0  0  0  0
   34.8506  -21.1189    0.0000 C   0  0  0  0  0  0  0  0  0  0  0  0
   35.5186  -21.0486    0.0000 C   0  0  0  0  0  0  0  0  0  0  0  0
   35.7918  -20.4350    0.0000 C   0  0  0  0  0  0  0  0  0  0  0  0
   35.3970  -19.8916    0.0000 C   0  0  0  0  0  0  0  0  0  0  0  0
   33.7705  -17.2686    0.0000 C   0  0  0  0  0  0  0  0  0  0  0  0
   33.2714  -17.7180    0.0000 C   0  0  0  0  0  0  0  0  0  0  0  0
   33.5446  -18.3316    0.0000 N   0  0  0  0  0  0  0  0  0  0  0  0
   34.2126  -18.2614    0.0000 C   0  0  0  0  0  0  0  0  0  0  0  0
   34.3522  -17.6044    0.0000 S   0  0  0  0  0  0  0  0  0  0  0  0
   34.6074  -18.8048    0.0000 N   0  0  0  0  0  0  0  0  0  0  0  0
  1  2  2  0  0  0  0
  2  3  1  0  0  0  0
  3  4  2  0  0  0  0
  4  5  1  0  0  0  0
  4  7  1  0  0  0  0
  5  6  2  0  0  0  0
  6  1  1  0  0  0  0
  7  8  1  0  0  0  0
  8  9  1  0  0  0  0
  8 11  2  0  0  0  0
  9 10  2  0  0  0  0
  9 12  1  0  0  0  0
 10  5  1  0  0  0  0
 12 13  2  0  0  0  0
 12 14  1  0  0  0  0
 13 15  1  0  0  0  0
 15 16  1  0  0  0  0
 16 17  2  0  0  0  0
 17 18  1  0  0  0  0
 18 19  2  0  0  0  0
 18 23  1  0  0  0  0
 19 20  1  0  0  0  0
 19 21  1  0  0  0  0
 20 16  1  0  0  0  0
 21 22  2  0  0  0  0
 21 33  1  0  0  0  0
 22 24  1  0  0  0  0
 24 25  1  0  0  0  0
 25 26  2  0  0  0  0
 26 27  1  0  0  0  0
 27 28  2  0  0  0  0
 28 29  1  0  0  0  0
 29 30  2  0  0  0  0
 30 25  1  0  0  0  0
 31 32  2  0  0  0  0
 32 33  1  0  0  0  0
 33 34  1  0  0  0  0
 34 35  1  0  0  0  0
 34 36  2  0  0  0  0
 35 31  1  0  0  0  0
 36 24  1  0  0  0  0
M  END
>  <Name>
C2_20

$$$$
C2_22
 OpenBabel11182102372D

 40 46  0  0  0  0  0  0  0  0999 V2000
   27.0963  -24.1425    0.0000 C   0  0  0  0  0  0  0  0  0  0  0  0
   27.0261  -24.8105    0.0000 C   0  0  0  0  0  0  0  0  0  0  0  0
   27.5695  -25.2053    0.0000 C   0  0  0  0  0  0  0  0  0  0  0  0
   28.1831  -24.9321    0.0000 C   0  0  0  0  0  0  0  0  0  0  0  0
   28.2533  -24.2641    0.0000 C   0  0  0  0  0  0  0  0  0  0  0  0
   27.7099  -23.8693    0.0000 C   0  0  0  0  0  0  0  0  0  0  0  0
   28.7265  -25.3269    0.0000 O   0  0  0  0  0  0  0  0  0  0  0  0
   29.3401  -25.0537    0.0000 C   0  0  0  0  0  0  0  0  0  0  0  0
   29.4103  -24.3857    0.0000 C   0  0  0  0  0  0  0  0  0  0  0  0
   28.8669  -23.9909    0.0000 C   0  0  0  0  0  0  0  0  0  0  0  0
   29.8835  -25.4486    0.0000 O   0  0  0  0  0  0  0  0  0  0  0  0
   30.0239  -24.1125    0.0000 C   0  0  0  0  0  0  0  0  0  0  0  0
   30.5673  -24.5073    0.0000 N   0  0  0  0  0  0  0  0  0  0  0  0
   30.0941  -23.4445    0.0000 C   0  0  0  0  0  0  0  0  0  0  0  0
   31.1809  -24.2341    0.0000 N   0  0  0  0  0  0  0  0  0  0  0  0
   31.7243  -24.6290    0.0000 C   0  0  0  0  0  0  0  0  0  0  0  0
   31.7243  -25.3006    0.0000 N   0  0  0  0  0  0  0  0  0  0  0  0
   32.3632  -25.5082    0.0000 C   0  0  0  0  0  0  0  0  0  0  0  0
   32.7580  -24.9648    0.0000 C   0  0  0  0  0  0  0  0  0  0  0  0
   32.3632  -24.4214    0.0000 S   0  0  0  0  0  0  0  0  0  0  0  0
   33.4296  -24.9648    0.0000 C   0  0  0  0  0  0  0  0  0  0  0  0
   33.7655  -25.5465    0.0000 C   0  0  0  0  0  0  0  0  0  0  0  0
   32.5707  -26.1470    0.0000 C   0  0  0  0  0  0  0  0  0  0  0  0
   34.4372  -25.5465    0.0000 C   0  0  3  0  0  0  0  0  0  0  0  0
   34.7730  -26.1282    0.0000 C   0  0  0  0  0  0  0  0  0  0  0  0
   34.4372  -26.7099    0.0000 C   0  0  0  0  0  0  0  0  0  0  0  0
   34.7730  -27.2916    0.0000 C   0  0  0  0  0  0  0  0  0  0  0  0
   35.4447  -27.2916    0.0000 C   0  0  0  0  0  0  0  0  0  0  0  0
   35.7805  -26.7099    0.0000 C   0  0  0  0  0  0  0  0  0  0  0  0
   35.4447  -26.1282    0.0000 C   0  0  0  0  0  0  0  0  0  0  0  0
   34.1013  -23.3495    0.0000 C   0  0  0  0  0  0  0  0  0  0  0  0
   33.5579  -23.7443    0.0000 C   0  0  0  0  0  0  0  0  0  0  0  0
   33.7655  -24.3831    0.0000 N   0  0  0  0  0  0  0  0  0  0  0  0
   34.4372  -24.3831    0.0000 C   0  0  0  0  0  0  0  0  0  0  0  0
   34.6447  -23.7443    0.0000 S   0  0  0  0  0  0  0  0  0  0  0  0
   34.7730  -24.9648    0.0000 N   0  0  0  0  0  0  0  0  0  0  0  0
   34.0311  -22.6815    0.0000 C   0  0  0  0  0  0  0  0  0  0  0  0
   33.4175  -22.4083    0.0000 C   0  0  0  0  0  0  0  0  0  0  0  0
   32.8741  -22.8031    0.0000 C   0  0  0  0  0  0  0  0  0  0  0  0
   32.9443  -23.4711    0.0000 C   0  0  0  0  0  0  0  0  0  0  0  0
  1  2  2  0  0  0  0
  2  3  1  0  0  0  0
  3  4  2  0  0  0  0
  4  5  1  0  0  0  0
  4  7  1  0  0  0  0
  5  6  2  0  0  0  0
  6  1  1  0  0  0  0
  7  8  1  0  0  0  0
  8  9  1  0  0  0  0
  8 11  2  0  0  0  0
  9 10  2  0  0  0  0
  9 12  1  0  0  0  0
 10  5  1  0  0  0  0
 12 13  2  0  0  0  0
 12 14  1  0  0  0  0
 13 15  1  0  0  0  0
 15 16  1  0  0  0  0
 16 17  2  0  0  0  0
 17 18  1  0  0  0  0
 18 19  2  0  0  0  0
 18 23  1  0  0  0  0
 19 20  1  0  0  0  0
 19 21  1  0  0  0  0
 20 16  1  0  0  0  0
 21 22  2  0  0  0  0
 22 24  1  0  0  0  0
 24 25  1  0  0  0  0
 25 26  2  0  0  0  0
 26 27  1  0  0  0  0
 27 28  2  0  0  0  0
 28 29  1  0  0  0  0
 29 30  2  0  0  0  0
 30 25  1  0  0  0  0
 31 32  2  0  0  0  0
 31 37  1  0  0  0  0
 32 33  1  0  0  0  0
 33 21  1  0  0  0  0
 33 34  1  0  0  0  0
 34 35  1  0  0  0  0
 34 36  2  0  0  0  0
 35 31  1  0  0  0  0
 36 24  1  0  0  0  0
 37 38  2  0  0  0  0
 38 39  1  0  0  0  0
 39 40  2  0  0  0  0
 40 32  1  0  0  0  0
M  END
>  <Name>
C2_22

$$$$
C2_7a
 OpenBabel11182102372D

 31 34  0  0  0  0  0  0  0  0999 V2000
    0.1874   -2.4771    0.0000 C   0  0  0  0  0  0  0  0  0  0  0  0
    0.1874   -3.3021    0.0000 C   0  0  0  0  0  0  0  0  0  0  0  0
    0.9019   -3.7146    0.0000 C   0  0  0  0  0  0  0  0  0  0  0  0
    1.6164   -3.3021    0.0000 C   0  0  0  0  0  0  0  0  0  0  0  0
    1.6164   -2.4771    0.0000 C   0  0  0  0  0  0  0  0  0  0  0  0
    0.9019   -2.0646    0.0000 C   0  0  0  0  0  0  0  0  0  0  0  0
    2.3308   -3.7146    0.0000 O   0  0  0  0  0  0  0  0  0  0  0  0
    3.0453   -3.3021    0.0000 C   0  0  0  0  0  0  0  0  0  0  0  0
    3.0453   -2.4771    0.0000 C   0  0  0  0  0  0  0  0  0  0  0  0
    2.3308   -2.0646    0.0000 C   0  0  0  0  0  0  0  0  0  0  0  0
    3.7598   -3.7146    0.0000 O   0  0  0  0  0  0  0  0  0  0  0  0
    3.7598   -2.0646    0.0000 C   0  0  0  0  0  0  0  0  0  0  0  0
    4.4742   -2.4771    0.0000 N   0  0  0  0  0  0  0  0  0  0  0  0
    3.7598   -1.2396    0.0000 C   0  0  0  0  0  0  0  0  0  0  0  0
    5.1887   -2.0646    0.0000 N   0  0  0  0  0  0  0  0  0  0  0  0
    5.9032   -2.4771    0.0000 C   0  0  0  0  0  0  0  0  0  0  0  0
    5.9894   -3.2976    0.0000 N   0  0  0  0  0  0  0  0  0  0  0  0
    6.7964   -3.4691    0.0000 C   0  0  0  0  0  0  0  0  0  0  0  0
    7.2089   -2.7546    0.0000 C   0  0  0  0  0  0  0  0  0  0  0  0
    6.6569   -2.1415    0.0000 S   0  0  0  0  0  0  0  0  0  0  0  0
    8.0294   -2.6684    0.0000 C   0  0  0  0  0  0  0  0  0  0  0  0
    8.5143   -3.3358    0.0000 C   0  0  0  0  0  0  0  0  0  0  0  0
    7.1320   -4.2228    0.0000 C   0  0  0  0  0  0  0  0  0  0  0  0
    8.3649   -1.9147    0.0000 O   0  0  0  0  0  0  0  0  0  0  0  0
    9.3348   -3.2496    0.0000 C   0  0  0  0  0  0  0  0  0  0  0  0
    9.8197   -3.9170    0.0000 C   0  0  0  0  0  0  0  0  0  0  0  0
    9.4841   -4.6707    0.0000 C   0  0  0  0  0  0  0  0  0  0  0  0
    9.9691   -5.3381    0.0000 C   0  0  0  0  0  0  0  0  0  0  0  0
   10.7896   -5.2519    0.0000 C   0  0  0  0  0  0  0  0  0  0  0  0
   11.1251   -4.4982    0.0000 C   0  0  0  0  0  0  0  0  0  0  0  0
   10.6402   -3.8308    0.0000 C   0  0  0  0  0  0  0  0  0  0  0  0
  1  2  2  0  0  0  0
  2  3  1  0  0  0  0
  3  4  2  0  0  0  0
  4  5  1  0  0  0  0
  4  7  1  0  0  0  0
  5  6  2  0  0  0  0
  6  1  1  0  0  0  0
  7  8  1  0  0  0  0
  8  9  1  0  0  0  0
  8 11  2  0  0  0  0
  9 10  2  0  0  0  0
  9 12  1  0  0  0  0
 10  5  1  0  0  0  0
 12 13  2  0  0  0  0
 12 14  1  0  0  0  0
 13 15  1  0  0  0  0
 15 16  1  0  0  0  0
 16 17  2  0  0  0  0
 17 18  1  0  0  0  0
 18 19  2  0  0  0  0
 18 23  1  0  0  0  0
 19 20  1  0  0  0  0
 19 21  1  0  0  0  0
 20 16  1  0  0  0  0
 21 22  1  0  0  0  0
 21 24  2  0  0  0  0
 22 25  2  0  0  0  0
 25 26  1  0  0  0  0
 26 27  2  0  0  0  0
 27 28  1  0  0  0  0
 28 29  2  0  0  0  0
 29 30  1  0  0  0  0
 30 31  2  0  0  0  0
 31 26  1  0  0  0  0
M  END
>  <Name>
C2_7a

$$$$
C2_7b
 OpenBabel11182102372D

 32 35  0  0  0  0  0  0  0  0999 V2000
    0.1906   -7.0580    0.0000 C   0  0  0  0  0  0  0  0  0  0  0  0
    0.1906   -7.8830    0.0000 C   0  0  0  0  0  0  0  0  0  0  0  0
    0.9051   -8.2955    0.0000 C   0  0  0  0  0  0  0  0  0  0  0  0
    1.6196   -7.8830    0.0000 C   0  0  0  0  0  0  0  0  0  0  0  0
    1.6196   -7.0580    0.0000 C   0  0  0  0  0  0  0  0  0  0  0  0
    0.9051   -6.6455    0.0000 C   0  0  0  0  0  0  0  0  0  0  0  0
    2.3341   -8.2955    0.0000 O   0  0  0  0  0  0  0  0  0  0  0  0
    3.0485   -7.8830    0.0000 C   0  0  0  0  0  0  0  0  0  0  0  0
    3.0485   -7.0580    0.0000 C   0  0  0  0  0  0  0  0  0  0  0  0
    2.3341   -6.6455    0.0000 C   0  0  0  0  0  0  0  0  0  0  0  0
    3.7630   -8.2955    0.0000 O   0  0  0  0  0  0  0  0  0  0  0  0
    3.7630   -6.6455    0.0000 C   0  0  0  0  0  0  0  0  0  0  0  0
    4.4775   -7.0580    0.0000 N   0  0  0  0  0  0  0  0  0  0  0  0
    3.7630   -5.8205    0.0000 C   0  0  0  0  0  0  0  0  0  0  0  0
    5.1919   -6.6455    0.0000 N   0  0  0  0  0  0  0  0  0  0  0  0
    5.9064   -7.0580    0.0000 C   0  0  0  0  0  0  0  0  0  0  0  0
    5.9927   -7.8784    0.0000 N   0  0  0  0  0  0  0  0  0  0  0  0
    6.7996   -8.0500    0.0000 C   0  0  0  0  0  0  0  0  0  0  0  0
    7.2121   -7.3355    0.0000 C   0  0  0  0  0  0  0  0  0  0  0  0
    6.6601   -6.7224    0.0000 S   0  0  0  0  0  0  0  0  0  0  0  0
    8.0326   -7.2493    0.0000 C   0  0  0  0  0  0  0  0  0  0  0  0
    8.5175   -7.9167    0.0000 C   0  0  0  0  0  0  0  0  0  0  0  0
    7.1352   -8.8037    0.0000 C   0  0  0  0  0  0  0  0  0  0  0  0
    8.3682   -6.4956    0.0000 O   0  0  0  0  0  0  0  0  0  0  0  0
    9.3380   -7.8305    0.0000 C   0  0  0  0  0  0  0  0  0  0  0  0
    9.8229   -8.4979    0.0000 C   0  0  0  0  0  0  0  0  0  0  0  0
    9.4874   -9.2516    0.0000 C   0  0  0  0  0  0  0  0  0  0  0  0
    9.9723   -9.9190    0.0000 C   0  0  0  0  0  0  0  0  0  0  0  0
   10.7928   -9.8328    0.0000 C   0  0  0  0  0  0  0  0  0  0  0  0
   11.1283   -9.0791    0.0000 C   0  0  0  0  0  0  0  0  0  0  0  0
   10.6434   -8.4117    0.0000 C   0  0  0  0  0  0  0  0  0  0  0  0
   11.2777  -10.5002    0.0000 C   0  0  0  0  0  0  0  0  0  0  0  0
  1  2  2  0  0  0  0
  2  3  1  0  0  0  0
  3  4  2  0  0  0  0
  4  5  1  0  0  0  0
  4  7  1  0  0  0  0
  5  6  2  0  0  0  0
  6  1  1  0  0  0  0
  7  8  1  0  0  0  0
  8  9  1  0  0  0  0
  8 11  2  0  0  0  0
  9 10  2  0  0  0  0
  9 12  1  0  0  0  0
 10  5  1  0  0  0  0
 12 13  2  0  0  0  0
 12 14  1  0  0  0  0
 13 15  1  0  0  0  0
 15 16  1  0  0  0  0
 16 17  2  0  0  0  0
 17 18  1  0  0  0  0
 18 19  2  0  0  0  0
 18 23  1  0  0  0  0
 19 20  1  0  0  0  0
 19 21  1  0  0  0  0
 20 16  1  0  0  0  0
 21 22  1  0  0  0  0
 21 24  2  0  0  0  0
 22 25  2  0  0  0  0
 25 26  1  0  0  0  0
 26 27  2  0  0  0  0
 27 28  1  0  0  0  0
 28 29  2  0  0  0  0
 29 30  1  0  0  0  0
 29 32  1  0  0  0  0
 30 31  2  0  0  0  0
 31 26  1  0  0  0  0
M  END
>  <Name>
C2_7b

$$$$
C2_7c
 OpenBabel11182102372D

 33 36  0  0  0  0  0  0  0  0999 V2000
    0.1003  -11.2732    0.0000 C   0  0  0  0  0  0  0  0  0  0  0  0
    0.1003  -12.0982    0.0000 C   0  0  0  0  0  0  0  0  0  0  0  0
    0.8148  -12.5107    0.0000 C   0  0  0  0  0  0  0  0  0  0  0  0
    1.5293  -12.0982    0.0000 C   0  0  0  0  0  0  0  0  0  0  0  0
    1.5293  -11.2732    0.0000 C   0  0  0  0  0  0  0  0  0  0  0  0
    0.8148  -10.8607    0.0000 C   0  0  0  0  0  0  0  0  0  0  0  0
    2.2437  -12.5107    0.0000 O   0  0  0  0  0  0  0  0  0  0  0  0
    2.9582  -12.0982    0.0000 C   0  0  0  0  0  0  0  0  0  0  0  0
    2.9582  -11.2732    0.0000 C   0  0  0  0  0  0  0  0  0  0  0  0
    2.2437  -10.8607    0.0000 C   0  0  0  0  0  0  0  0  0  0  0  0
    3.6727  -12.5107    0.0000 O   0  0  0  0  0  0  0  0  0  0  0  0
    3.6727  -10.8607    0.0000 C   0  0  0  0  0  0  0  0  0  0  0  0
    4.3871  -11.2732    0.0000 N   0  0  0  0  0  0  0  0  0  0  0  0
    3.6727  -10.0357    0.0000 C   0  0  0  0  0  0  0  0  0  0  0  0
    5.1016  -10.8607    0.0000 N   0  0  0  0  0  0  0  0  0  0  0  0
    5.8161  -11.2732    0.0000 C   0  0  0  0  0  0  0  0  0  0  0  0
    5.9023  -12.0937    0.0000 N   0  0  0  0  0  0  0  0  0  0  0  0
    6.7093  -12.2652    0.0000 C   0  0  0  0  0  0  0  0  0  0  0  0
    7.1218  -11.5507    0.0000 C   0  0  0  0  0  0  0  0  0  0  0  0
    6.5698  -10.9377    0.0000 S   0  0  0  0  0  0  0  0  0  0  0  0
    7.9423  -11.4645    0.0000 C   0  0  0  0  0  0  0  0  0  0  0  0
    8.4272  -12.1320    0.0000 C   0  0  0  0  0  0  0  0  0  0  0  0
    7.0449  -13.0189    0.0000 C   0  0  0  0  0  0  0  0  0  0  0  0
    8.2778  -10.7108    0.0000 O   0  0  0  0  0  0  0  0  0  0  0  0
    9.2477  -12.0457    0.0000 C   0  0  0  0  0  0  0  0  0  0  0  0
    9.7326  -12.7132    0.0000 C   0  0  0  0  0  0  0  0  0  0  0  0
    9.3971  -13.4668    0.0000 C   0  0  0  0  0  0  0  0  0  0  0  0
    9.8820  -14.1343    0.0000 C   0  0  0  0  0  0  0  0  0  0  0  0
   10.7025  -14.0480    0.0000 C   0  0  0  0  0  0  0  0  0  0  0  0
   11.0380  -13.2944    0.0000 C   0  0  0  0  0  0  0  0  0  0  0  0
   10.5531  -12.6269    0.0000 C   0  0  0  0  0  0  0  0  0  0  0  0
   11.1874  -14.7155    0.0000 O   0  0  0  0  0  0  0  0  0  0  0  0
   11.6711  -15.3813    0.0000 C   0  0  0  0  0  0  0  0  0  0  0  0
  1  2  2  0  0  0  0
  2  3  1  0  0  0  0
  3  4  2  0  0  0  0
  4  5  1  0  0  0  0
  4  7  1  0  0  0  0
  5  6  2  0  0  0  0
  6  1  1  0  0  0  0
  7  8  1  0  0  0  0
  8  9  1  0  0  0  0
  8 11  2  0  0  0  0
  9 10  2  0  0  0  0
  9 12  1  0  0  0  0
 10  5  1  0  0  0  0
 12 13  2  0  0  0  0
 12 14  1  0  0  0  0
 13 15  1  0  0  0  0
 15 16  1  0  0  0  0
 16 17  2  0  0  0  0
 17 18  1  0  0  0  0
 18 19  2  0  0  0  0
 18 23  1  0  0  0  0
 19 20  1  0  0  0  0
 19 21  1  0  0  0  0
 20 16  1  0  0  0  0
 21 22  1  0  0  0  0
 21 24  2  0  0  0  0
 22 25  2  0  0  0  0
 25 26  1  0  0  0  0
 26 27  2  0  0  0  0
 27 28  1  0  0  0  0
 28 29  2  0  0  0  0
 29 30  1  0  0  0  0
 29 32  1  0  0  0  0
 30 31  2  0  0  0  0
 31 26  1  0  0  0  0
 32 33  1  0  0  0  0
M  END
>  <Name>
C2_7c

$$$$
C2_7d
 OpenBabel11182102372D

 32 35  0  0  0  0  0  0  0  0999 V2000
   13.2579   -2.5416    0.0000 C   0  0  0  0  0  0  0  0  0  0  0  0
   13.2579   -3.3666    0.0000 C   0  0  0  0  0  0  0  0  0  0  0  0
   13.9724   -3.7791    0.0000 C   0  0  0  0  0  0  0  0  0  0  0  0
   14.6868   -3.3666    0.0000 C   0  0  0  0  0  0  0  0  0  0  0  0
   14.6868   -2.5416    0.0000 C   0  0  0  0  0  0  0  0  0  0  0  0
   13.9724   -2.1291    0.0000 C   0  0  0  0  0  0  0  0  0  0  0  0
   15.4013   -3.7791    0.0000 O   0  0  0  0  0  0  0  0  0  0  0  0
   16.1158   -3.3666    0.0000 C   0  0  0  0  0  0  0  0  0  0  0  0
   16.1158   -2.5416    0.0000 C   0  0  0  0  0  0  0  0  0  0  0  0
   15.4013   -2.1291    0.0000 C   0  0  0  0  0  0  0  0  0  0  0  0
   16.8303   -3.7791    0.0000 O   0  0  0  0  0  0  0  0  0  0  0  0
   16.8303   -2.1291    0.0000 C   0  0  0  0  0  0  0  0  0  0  0  0
   17.5447   -2.5416    0.0000 N   0  0  0  0  0  0  0  0  0  0  0  0
   16.8303   -1.3041    0.0000 C   0  0  0  0  0  0  0  0  0  0  0  0
   18.2592   -2.1291    0.0000 N   0  0  0  0  0  0  0  0  0  0  0  0
   18.9737   -2.5416    0.0000 C   0  0  0  0  0  0  0  0  0  0  0  0
   19.0599   -3.3621    0.0000 N   0  0  0  0  0  0  0  0  0  0  0  0
   19.8669   -3.5336    0.0000 C   0  0  0  0  0  0  0  0  0  0  0  0
   20.2794   -2.8192    0.0000 C   0  0  0  0  0  0  0  0  0  0  0  0
   19.7274   -2.2061    0.0000 S   0  0  0  0  0  0  0  0  0  0  0  0
   21.0999   -2.7329    0.0000 C   0  0  0  0  0  0  0  0  0  0  0  0
   21.5848   -3.4004    0.0000 C   0  0  0  0  0  0  0  0  0  0  0  0
   20.2024   -4.2873    0.0000 C   0  0  0  0  0  0  0  0  0  0  0  0
   21.4354   -1.9793    0.0000 O   0  0  0  0  0  0  0  0  0  0  0  0
   22.4053   -3.3141    0.0000 C   0  0  0  0  0  0  0  0  0  0  0  0
   22.8902   -3.9816    0.0000 C   0  0  0  0  0  0  0  0  0  0  0  0
   22.5546   -4.7353    0.0000 C   0  0  0  0  0  0  0  0  0  0  0  0
   23.0396   -5.4027    0.0000 C   0  0  0  0  0  0  0  0  0  0  0  0
   23.8600   -5.3165    0.0000 C   0  0  0  0  0  0  0  0  0  0  0  0
   24.1956   -4.5628    0.0000 C   0  0  0  0  0  0  0  0  0  0  0  0
   23.7107   -3.8953    0.0000 C   0  0  0  0  0  0  0  0  0  0  0  0
   24.3450   -5.9839    0.0000 Cl  0  0  0  0  0  0  0  0  0  0  0  0
  1  2  2  0  0  0  0
  2  3  1  0  0  0  0
  3  4  2  0  0  0  0
  4  5  1  0  0  0  0
  4  7  1  0  0  0  0
  5  6  2  0  0  0  0
  6  1  1  0  0  0  0
  7  8  1  0  0  0  0
  8  9  1  0  0  0  0
  8 11  2  0  0  0  0
  9 10  2  0  0  0  0
  9 12  1  0  0  0  0
 10  5  1  0  0  0  0
 12 13  2  0  0  0  0
 12 14  1  0  0  0  0
 13 15  1  0  0  0  0
 15 16  1  0  0  0  0
 16 17  2  0  0  0  0
 17 18  1  0  0  0  0
 18 19  2  0  0  0  0
 18 23  1  0  0  0  0
 19 20  1  0  0  0  0
 19 21  1  0  0  0  0
 20 16  1  0  0  0  0
 21 22  1  0  0  0  0
 21 24  2  0  0  0  0
 22 25  2  0  0  0  0
 25 26  1  0  0  0  0
 26 27  2  0  0  0  0
 27 28  1  0  0  0  0
 28 29  2  0  0  0  0
 29 30  1  0  0  0  0
 29 32  1  0  0  0  0
 30 31  2  0  0  0  0
 31 26  1  0  0  0  0
M  END
>  <Name>
C2_7d

$$$$
C2_7e
 OpenBabel11182102372D

 33 36  0  0  0  0  0  0  0  0999 V2000
   13.5590   -7.3591    0.0000 C   0  0  0  0  0  0  0  0  0  0  0  0
   13.5590   -8.1841    0.0000 C   0  0  0  0  0  0  0  0  0  0  0  0
   14.2735   -8.5966    0.0000 C   0  0  0  0  0  0  0  0  0  0  0  0
   14.9879   -8.1841    0.0000 C   0  0  0  0  0  0  0  0  0  0  0  0
   14.9879   -7.3591    0.0000 C   0  0  0  0  0  0  0  0  0  0  0  0
   14.2735   -6.9466    0.0000 C   0  0  0  0  0  0  0  0  0  0  0  0
   15.7024   -8.5966    0.0000 O   0  0  0  0  0  0  0  0  0  0  0  0
   16.4169   -8.1841    0.0000 C   0  0  0  0  0  0  0  0  0  0  0  0
   16.4169   -7.3591    0.0000 C   0  0  0  0  0  0  0  0  0  0  0  0
   15.7024   -6.9466    0.0000 C   0  0  0  0  0  0  0  0  0  0  0  0
   17.1314   -8.5966    0.0000 O   0  0  0  0  0  0  0  0  0  0  0  0
   17.1314   -6.9466    0.0000 C   0  0  0  0  0  0  0  0  0  0  0  0
   17.8458   -7.3591    0.0000 N   0  0  0  0  0  0  0  0  0  0  0  0
   17.1314   -6.1216    0.0000 C   0  0  0  0  0  0  0  0  0  0  0  0
   18.5603   -6.9466    0.0000 N   0  0  0  0  0  0  0  0  0  0  0  0
   19.2748   -7.3591    0.0000 C   0  0  0  0  0  0  0  0  0  0  0  0
   19.3610   -8.1795    0.0000 N   0  0  0  0  0  0  0  0  0  0  0  0
   20.1680   -8.3511    0.0000 C   0  0  0  0  0  0  0  0  0  0  0  0
   20.5805   -7.6366    0.0000 C   0  0  0  0  0  0  0  0  0  0  0  0
   20.0284   -7.0235    0.0000 S   0  0  0  0  0  0  0  0  0  0  0  0
   21.4010   -7.5504    0.0000 C   0  0  0  0  0  0  0  0  0  0  0  0
   21.8859   -8.2178    0.0000 C   0  0  0  0  0  0  0  0  0  0  0  0
   20.5035   -9.1047    0.0000 C   0  0  0  0  0  0  0  0  0  0  0  0
   21.7365   -6.7967    0.0000 O   0  0  0  0  0  0  0  0  0  0  0  0
   22.7064   -8.1316    0.0000 C   0  0  0  0  0  0  0  0  0  0  0  0
   23.1913   -8.7990    0.0000 C   0  0  0  0  0  0  0  0  0  0  0  0
   22.8557   -9.5527    0.0000 C   0  0  0  0  0  0  0  0  0  0  0  0
   23.3407  -10.2201    0.0000 C   0  0  0  0  0  0  0  0  0  0  0  0
   24.1611  -10.1339    0.0000 C   0  0  0  0  0  0  0  0  0  0  0  0
   24.4967   -9.3802    0.0000 C   0  0  0  0  0  0  0  0  0  0  0  0
   24.0118   -8.7128    0.0000 C   0  0  0  0  0  0  0  0  0  0  0  0
   24.6461  -10.8013    0.0000 Cl  0  0  0  0  0  0  0  0  0  0  0  0
   24.3473   -7.9591    0.0000 Cl  0  0  0  0  0  0  0  0  0  0  0  0
  1  2  2  0  0  0  0
  2  3  1  0  0  0  0
  3  4  2  0  0  0  0
  4  5  1  0  0  0  0
  4  7  1  0  0  0  0
  5  6  2  0  0  0  0
  6  1  1  0  0  0  0
  7  8  1  0  0  0  0
  8  9  1  0  0  0  0
  8 11  2  0  0  0  0
  9 10  2  0  0  0  0
  9 12  1  0  0  0  0
 10  5  1  0  0  0  0
 12 13  2  0  0  0  0
 12 14  1  0  0  0  0
 13 15  1  0  0  0  0
 15 16  1  0  0  0  0
 16 17  2  0  0  0  0
 17 18  1  0  0  0  0
 18 19  2  0  0  0  0
 18 23  1  0  0  0  0
 19 20  1  0  0  0  0
 19 21  1  0  0  0  0
 20 16  1  0  0  0  0
 21 22  1  0  0  0  0
 21 24  2  0  0  0  0
 22 25  2  0  0  0  0
 25 26  1  0  0  0  0
 26 27  2  0  0  0  0
 27 28  1  0  0  0  0
 28 29  2  0  0  0  0
 29 30  1  0  0  0  0
 29 32  1  0  0  0  0
 30 31  2  0  0  0  0
 31 26  1  0  0  0  0
 31 33  1  0  0  0  0
M  END
>  <Name>
C2_7e

$$$$
C2_8a
 OpenBabel11182102372D

 32 36  0  0  0  0  0  0  0  0999 V2000
   13.0422  -12.5272    0.0000 C   0  0  0  0  0  0  0  0  0  0  0  0
   13.0422  -13.3522    0.0000 C   0  0  0  0  0  0  0  0  0  0  0  0
   13.7567  -13.7647    0.0000 C   0  0  0  0  0  0  0  0  0  0  0  0
   14.4712  -13.3522    0.0000 C   0  0  0  0  0  0  0  0  0  0  0  0
   14.4712  -12.5272    0.0000 C   0  0  0  0  0  0  0  0  0  0  0  0
   13.7567  -12.1147    0.0000 C   0  0  0  0  0  0  0  0  0  0  0  0
   15.1856  -13.7647    0.0000 O   0  0  0  0  0  0  0  0  0  0  0  0
   15.9001  -13.3522    0.0000 C   0  0  0  0  0  0  0  0  0  0  0  0
   15.9001  -12.5272    0.0000 C   0  0  0  0  0  0  0  0  0  0  0  0
   15.1856  -12.1147    0.0000 C   0  0  0  0  0  0  0  0  0  0  0  0
   16.6146  -13.7647    0.0000 O   0  0  0  0  0  0  0  0  0  0  0  0
   16.6146  -12.1147    0.0000 C   0  0  0  0  0  0  0  0  0  0  0  0
   17.3290  -12.5272    0.0000 N   0  0  0  0  0  0  0  0  0  0  0  0
   16.6146  -11.2897    0.0000 C   0  0  0  0  0  0  0  0  0  0  0  0
   18.0435  -12.1147    0.0000 N   0  0  0  0  0  0  0  0  0  0  0  0
   18.7580  -12.5272    0.0000 C   0  0  0  0  0  0  0  0  0  0  0  0
   18.8442  -13.3477    0.0000 N   0  0  0  0  0  0  0  0  0  0  0  0
   19.6512  -13.5192    0.0000 C   0  0  0  0  0  0  0  0  0  0  0  0
   20.0637  -12.8047    0.0000 C   0  0  0  0  0  0  0  0  0  0  0  0
   19.5117  -12.1916    0.0000 S   0  0  0  0  0  0  0  0  0  0  0  0
   20.8842  -12.7185    0.0000 C   0  0  0  0  0  0  0  0  0  0  0  0
   21.3691  -13.3859    0.0000 C   0  0  0  0  0  0  0  0  0  0  0  0
   19.9868  -14.2729    0.0000 C   0  0  0  0  0  0  0  0  0  0  0  0
   22.1896  -13.2997    0.0000 C   0  0  0  0  0  0  0  0  0  0  0  0
   22.6745  -13.9671    0.0000 C   0  0  0  0  0  0  0  0  0  0  0  0
   22.3389  -14.7208    0.0000 C   0  0  0  0  0  0  0  0  0  0  0  0
   22.8239  -15.3882    0.0000 C   0  0  0  0  0  0  0  0  0  0  0  0
   23.6444  -15.3020    0.0000 C   0  0  0  0  0  0  0  0  0  0  0  0
   23.9799  -14.5483    0.0000 C   0  0  0  0  0  0  0  0  0  0  0  0
   23.4950  -13.8809    0.0000 C   0  0  0  0  0  0  0  0  0  0  0  0
   22.5251  -12.5460    0.0000 N   0  0  0  0  0  0  0  0  0  0  0  0
   21.2197  -11.9648    0.0000 N   0  0  0  0  0  0  0  0  0  0  0  0
  1  2  2  0  0  0  0
  2  3  1  0  0  0  0
  3  4  2  0  0  0  0
  4  5  1  0  0  0  0
  4  7  1  0  0  0  0
  5  6  2  0  0  0  0
  6  1  1  0  0  0  0
  7  8  1  0  0  0  0
  8  9  1  0  0  0  0
  8 11  2  0  0  0  0
  9 10  2  0  0  0  0
  9 12  1  0  0  0  0
 10  5  1  0  0  0  0
 12 13  2  0  0  0  0
 12 14  1  0  0  0  0
 13 15  1  0  0  0  0
 15 16  1  0  0  0  0
 16 17  2  0  0  0  0
 17 18  1  0  0  0  0
 18 19  2  0  0  0  0
 18 23  1  0  0  0  0
 19 20  1  0  0  0  0
 19 21  1  0  0  0  0
 20 16  1  0  0  0  0
 21 22  2  0  0  0  0
 21 32  1  0  0  0  0
 22 24  1  0  0  0  0
 24 25  1  0  0  0  0
 24 31  2  0  0  0  0
 25 26  2  0  0  0  0
 26 27  1  0  0  0  0
 27 28  2  0  0  0  0
 28 29  1  0  0  0  0
 29 30  2  0  0  0  0
 30 25  1  0  0  0  0
 31 32  1  0  0  0  0
M  END
>  <Name>
C2_8a

$$$$
C2_8b
 OpenBabel11182102372D

 33 37  0  0  0  0  0  0  0  0999 V2000
    0.3442  -16.6928    0.0000 C   0  0  0  0  0  0  0  0  0  0  0  0
    0.3442  -17.5178    0.0000 C   0  0  0  0  0  0  0  0  0  0  0  0
    1.0587  -17.9303    0.0000 C   0  0  0  0  0  0  0  0  0  0  0  0
    1.7731  -17.5178    0.0000 C   0  0  0  0  0  0  0  0  0  0  0  0
    1.7731  -16.6928    0.0000 C   0  0  0  0  0  0  0  0  0  0  0  0
    1.0587  -16.2803    0.0000 C   0  0  0  0  0  0  0  0  0  0  0  0
    2.4876  -17.9303    0.0000 O   0  0  0  0  0  0  0  0  0  0  0  0
    3.2021  -17.5178    0.0000 C   0  0  0  0  0  0  0  0  0  0  0  0
    3.2021  -16.6928    0.0000 C   0  0  0  0  0  0  0  0  0  0  0  0
    2.4876  -16.2803    0.0000 C   0  0  0  0  0  0  0  0  0  0  0  0
    3.9166  -17.9303    0.0000 O   0  0  0  0  0  0  0  0  0  0  0  0
    3.9166  -16.2803    0.0000 C   0  0  0  0  0  0  0  0  0  0  0  0
    4.6310  -16.6928    0.0000 N   0  0  0  0  0  0  0  0  0  0  0  0
    3.9166  -15.4553    0.0000 C   0  0  0  0  0  0  0  0  0  0  0  0
    5.3455  -16.2803    0.0000 N   0  0  0  0  0  0  0  0  0  0  0  0
    6.0600  -16.6928    0.0000 C   0  0  0  0  0  0  0  0  0  0  0  0
    6.1462  -17.5133    0.0000 N   0  0  0  0  0  0  0  0  0  0  0  0
    6.9532  -17.6848    0.0000 C   0  0  0  0  0  0  0  0  0  0  0  0
    7.3657  -16.9704    0.0000 C   0  0  0  0  0  0  0  0  0  0  0  0
    6.8136  -16.3573    0.0000 S   0  0  0  0  0  0  0  0  0  0  0  0
    8.1862  -16.8841    0.0000 C   0  0  0  0  0  0  0  0  0  0  0  0
    8.6711  -17.5516    0.0000 C   0  0  0  0  0  0  0  0  0  0  0  0
    7.2887  -18.4385    0.0000 C   0  0  0  0  0  0  0  0  0  0  0  0
    9.4916  -17.4653    0.0000 C   0  0  0  0  0  0  0  0  0  0  0  0
    9.9765  -18.1328    0.0000 C   0  0  0  0  0  0  0  0  0  0  0  0
    9.6409  -18.8864    0.0000 C   0  0  0  0  0  0  0  0  0  0  0  0
   10.1259  -19.5539    0.0000 C   0  0  0  0  0  0  0  0  0  0  0  0
   10.9463  -19.4676    0.0000 C   0  0  0  0  0  0  0  0  0  0  0  0
   11.2819  -18.7140    0.0000 C   0  0  0  0  0  0  0  0  0  0  0  0
   10.7970  -18.0465    0.0000 C   0  0  0  0  0  0  0  0  0  0  0  0
   11.4313  -20.1351    0.0000 C   0  0  0  0  0  0  0  0  0  0  0  0
    9.8271  -16.7116    0.0000 N   0  0  0  0  0  0  0  0  0  0  0  0
    8.5217  -16.1304    0.0000 N   0  0  0  0  0  0  0  0  0  0  0  0
  1  2  2  0  0  0  0
  2  3  1  0  0  0  0
  3  4  2  0  0  0  0
  4  5  1  0  0  0  0
  4  7  1  0  0  0  0
  5  6  2  0  0  0  0
  6  1  1  0  0  0  0
  7  8  1  0  0  0  0
  8  9  1  0  0  0  0
  8 11  2  0  0  0  0
  9 10  2  0  0  0  0
  9 12  1  0  0  0  0
 10  5  1  0  0  0  0
 12 13  2  0  0  0  0
 12 14  1  0  0  0  0
 13 15  1  0  0  0  0
 15 16  1  0  0  0  0
 16 17  2  0  0  0  0
 17 18  1  0  0  0  0
 18 19  2  0  0  0  0
 18 23  1  0  0  0  0
 19 20  1  0  0  0  0
 19 21  1  0  0  0  0
 20 16  1  0  0  0  0
 21 22  2  0  0  0  0
 21 33  1  0  0  0  0
 22 24  1  0  0  0  0
 24 25  1  0  0  0  0
 24 32  2  0  0  0  0
 25 26  2  0  0  0  0
 26 27  1  0  0  0  0
 27 28  2  0  0  0  0
 28 29  1  0  0  0  0
 28 31  1  0  0  0  0
 29 30  2  0  0  0  0
 30 25  1  0  0  0  0
 32 33  1  0  0  0  0
M  END
>  <Name>
C2_8b

$$$$
C2_8c
 OpenBabel11182102372D

 34 38  0  0  0  0  0  0  0  0999 V2000
   12.8394  -17.6262    0.0000 C   0  0  0  0  0  0  0  0  0  0  0  0
   12.8394  -18.4512    0.0000 C   0  0  0  0  0  0  0  0  0  0  0  0
   13.5539  -18.8637    0.0000 C   0  0  0  0  0  0  0  0  0  0  0  0
   14.2683  -18.4512    0.0000 C   0  0  0  0  0  0  0  0  0  0  0  0
   14.2683  -17.6262    0.0000 C   0  0  0  0  0  0  0  0  0  0  0  0
   13.5539  -17.2137    0.0000 C   0  0  0  0  0  0  0  0  0  0  0  0
   14.9828  -18.8637    0.0000 O   0  0  0  0  0  0  0  0  0  0  0  0
   15.6973  -18.4512    0.0000 C   0  0  0  0  0  0  0  0  0  0  0  0
   15.6973  -17.6262    0.0000 C   0  0  0  0  0  0  0  0  0  0  0  0
   14.9828  -17.2137    0.0000 C   0  0  0  0  0  0  0  0  0  0  0  0
   16.4118  -18.8637    0.0000 O   0  0  0  0  0  0  0  0  0  0  0  0
   16.4118  -17.2137    0.0000 C   0  0  0  0  0  0  0  0  0  0  0  0
   17.1262  -17.6262    0.0000 N   0  0  0  0  0  0  0  0  0  0  0  0
   16.4118  -16.3887    0.0000 C   0  0  0  0  0  0  0  0  0  0  0  0
   17.8407  -17.2137    0.0000 N   0  0  0  0  0  0  0  0  0  0  0  0
   18.5552  -17.6262    0.0000 C   0  0  0  0  0  0  0  0  0  0  0  0
   18.6414  -18.4467    0.0000 N   0  0  0  0  0  0  0  0  0  0  0  0
   19.4484  -18.6182    0.0000 C   0  0  0  0  0  0  0  0  0  0  0  0
   19.8609  -17.9037    0.0000 C   0  0  0  0  0  0  0  0  0  0  0  0
   19.3088  -17.2906    0.0000 S   0  0  0  0  0  0  0  0  0  0  0  0
   20.6814  -17.8175    0.0000 C   0  0  0  0  0  0  0  0  0  0  0  0
   21.1663  -18.4849    0.0000 C   0  0  0  0  0  0  0  0  0  0  0  0
   19.7839  -19.3719    0.0000 C   0  0  0  0  0  0  0  0  0  0  0  0
   21.9868  -18.3987    0.0000 C   0  0  0  0  0  0  0  0  0  0  0  0
   22.4717  -19.0661    0.0000 C   0  0  0  0  0  0  0  0  0  0  0  0
   22.1361  -19.8198    0.0000 C   0  0  0  0  0  0  0  0  0  0  0  0
   22.6211  -20.4872    0.0000 C   0  0  0  0  0  0  0  0  0  0  0  0
   23.4415  -20.4010    0.0000 C   0  0  0  0  0  0  0  0  0  0  0  0
   23.7771  -19.6473    0.0000 C   0  0  0  0  0  0  0  0  0  0  0  0
   23.2922  -18.9799    0.0000 C   0  0  0  0  0  0  0  0  0  0  0  0
   23.9265  -21.0685    0.0000 O   0  0  0  0  0  0  0  0  0  0  0  0
   22.3223  -17.6450    0.0000 N   0  0  0  0  0  0  0  0  0  0  0  0
   21.0169  -17.0638    0.0000 N   0  0  0  0  0  0  0  0  0  0  0  0
   24.4102  -21.7343    0.0000 C   0  0  0  0  0  0  0  0  0  0  0  0
  1  2  2  0  0  0  0
  2  3  1  0  0  0  0
  3  4  2  0  0  0  0
  4  5  1  0  0  0  0
  4  7  1  0  0  0  0
  5  6  2  0  0  0  0
  6  1  1  0  0  0  0
  7  8  1  0  0  0  0
  8  9  1  0  0  0  0
  8 11  2  0  0  0  0
  9 10  2  0  0  0  0
  9 12  1  0  0  0  0
 10  5  1  0  0  0  0
 12 13  2  0  0  0  0
 12 14  1  0  0  0  0
 13 15  1  0  0  0  0
 15 16  1  0  0  0  0
 16 17  2  0  0  0  0
 17 18  1  0  0  0  0
 18 19  2  0  0  0  0
 18 23  1  0  0  0  0
 19 20  1  0  0  0  0
 19 21  1  0  0  0  0
 20 16  1  0  0  0  0
 21 22  2  0  0  0  0
 21 33  1  0  0  0  0
 22 24  1  0  0  0  0
 24 25  1  0  0  0  0
 24 32  2  0  0  0  0
 25 26  2  0  0  0  0
 26 27  1  0  0  0  0
 27 28  2  0  0  0  0
 28 29  1  0  0  0  0
 28 31  1  0  0  0  0
 29 30  2  0  0  0  0
 30 25  1  0  0  0  0
 31 34  1  0  0  0  0
 32 33  1  0  0  0  0
M  END
>  <Name>
C2_8c

$$$$
C2_8d
 OpenBabel11182102372D

 33 37  0  0  0  0  0  0  0  0999 V2000
    0.6453  -22.0823    0.0000 C   0  0  0  0  0  0  0  0  0  0  0  0
    0.6453  -22.9073    0.0000 C   0  0  0  0  0  0  0  0  0  0  0  0
    1.3598  -23.3198    0.0000 C   0  0  0  0  0  0  0  0  0  0  0  0
    2.0742  -22.9073    0.0000 C   0  0  0  0  0  0  0  0  0  0  0  0
    2.0742  -22.0823    0.0000 C   0  0  0  0  0  0  0  0  0  0  0  0
    1.3598  -21.6698    0.0000 C   0  0  0  0  0  0  0  0  0  0  0  0
    2.7887  -23.3198    0.0000 O   0  0  0  0  0  0  0  0  0  0  0  0
    3.5032  -22.9073    0.0000 C   0  0  0  0  0  0  0  0  0  0  0  0
    3.5032  -22.0823    0.0000 C   0  0  0  0  0  0  0  0  0  0  0  0
    2.7887  -21.6698    0.0000 C   0  0  0  0  0  0  0  0  0  0  0  0
    4.2176  -23.3198    0.0000 O   0  0  0  0  0  0  0  0  0  0  0  0
    4.2176  -21.6698    0.0000 C   0  0  0  0  0  0  0  0  0  0  0  0
    4.9321  -22.0823    0.0000 N   0  0  0  0  0  0  0  0  0  0  0  0
    4.2176  -20.8448    0.0000 C   0  0  0  0  0  0  0  0  0  0  0  0
    5.6466  -21.6698    0.0000 N   0  0  0  0  0  0  0  0  0  0  0  0
    6.3611  -22.0823    0.0000 C   0  0  0  0  0  0  0  0  0  0  0  0
    6.4473  -22.9028    0.0000 N   0  0  0  0  0  0  0  0  0  0  0  0
    7.2543  -23.0743    0.0000 C   0  0  0  0  0  0  0  0  0  0  0  0
    7.6668  -22.3598    0.0000 C   0  0  0  0  0  0  0  0  0  0  0  0
    7.1147  -21.7467    0.0000 S   0  0  0  0  0  0  0  0  0  0  0  0
    8.4873  -22.2736    0.0000 C   0  0  0  0  0  0  0  0  0  0  0  0
    8.9722  -22.9410    0.0000 C   0  0  0  0  0  0  0  0  0  0  0  0
    7.5898  -23.8280    0.0000 C   0  0  0  0  0  0  0  0  0  0  0  0
    9.7927  -22.8548    0.0000 C   0  0  0  0  0  0  0  0  0  0  0  0
   10.2776  -23.5222    0.0000 C   0  0  0  0  0  0  0  0  0  0  0  0
    9.9420  -24.2759    0.0000 C   0  0  0  0  0  0  0  0  0  0  0  0
   10.4269  -24.9434    0.0000 C   0  0  0  0  0  0  0  0  0  0  0  0
   11.2474  -24.8571    0.0000 C   0  0  0  0  0  0  0  0  0  0  0  0
   11.5830  -24.1035    0.0000 C   0  0  0  0  0  0  0  0  0  0  0  0
   11.0981  -23.4360    0.0000 C   0  0  0  0  0  0  0  0  0  0  0  0
   11.7324  -25.5246    0.0000 Cl  0  0  0  0  0  0  0  0  0  0  0  0
   10.1282  -22.1011    0.0000 N   0  0  0  0  0  0  0  0  0  0  0  0
    8.8228  -21.5199    0.0000 N   0  0  0  0  0  0  0  0  0  0  0  0
  1  2  2  0  0  0  0
  2  3  1  0  0  0  0
  3  4  2  0  0  0  0
  4  5  1  0  0  0  0
  4  7  1  0  0  0  0
  5  6  2  0  0  0  0
  6  1  1  0  0  0  0
  7  8  1  0  0  0  0
  8  9  1  0  0  0  0
  8 11  2  0  0  0  0
  9 10  2  0  0  0  0
  9 12  1  0  0  0  0
 10  5  1  0  0  0  0
 12 13  2  0  0  0  0
 12 14  1  0  0  0  0
 13 15  1  0  0  0  0
 15 16  1  0  0  0  0
 16 17  2  0  0  0  0
 17 18  1  0  0  0  0
 18 19  2  0  0  0  0
 18 23  1  0  0  0  0
 19 20  1  0  0  0  0
 19 21  1  0  0  0  0
 20 16  1  0  0  0  0
 21 22  2  0  0  0  0
 21 33  1  0  0  0  0
 22 24  1  0  0  0  0
 24 25  1  0  0  0  0
 24 32  2  0  0  0  0
 25 26  2  0  0  0  0
 26 27  1  0  0  0  0
 27 28  2  0  0  0  0
 28 29  1  0  0  0  0
 28 31  1  0  0  0  0
 29 30  2  0  0  0  0
 30 25  1  0  0  0  0
 32 33  1  0  0  0  0
M  END
>  <Name>
C2_8d

$$$$
C2_9a
 OpenBabel11182102372D

 39 44  0  0  0  0  0  0  0  0999 V2000
   13.3833  -23.0079    0.0000 C   0  0  0  0  0  0  0  0  0  0  0  0
   13.3833  -23.8329    0.0000 C   0  0  0  0  0  0  0  0  0  0  0  0
   14.0977  -24.2454    0.0000 C   0  0  0  0  0  0  0  0  0  0  0  0
   14.8122  -23.8329    0.0000 C   0  0  0  0  0  0  0  0  0  0  0  0
   14.8122  -23.0079    0.0000 C   0  0  0  0  0  0  0  0  0  0  0  0
   14.0977  -22.5954    0.0000 C   0  0  0  0  0  0  0  0  0  0  0  0
   15.5267  -24.2454    0.0000 O   0  0  0  0  0  0  0  0  0  0  0  0
   16.2412  -23.8329    0.0000 C   0  0  0  0  0  0  0  0  0  0  0  0
   16.2412  -23.0079    0.0000 C   0  0  0  0  0  0  0  0  0  0  0  0
   15.5267  -22.5954    0.0000 C   0  0  0  0  0  0  0  0  0  0  0  0
   16.9556  -24.2454    0.0000 O   0  0  0  0  0  0  0  0  0  0  0  0
   16.9556  -22.5954    0.0000 C   0  0  0  0  0  0  0  0  0  0  0  0
   17.6701  -23.0079    0.0000 N   0  0  0  0  0  0  0  0  0  0  0  0
   16.9556  -21.7704    0.0000 C   0  0  0  0  0  0  0  0  0  0  0  0
   18.3846  -22.5954    0.0000 N   0  0  0  0  0  0  0  0  0  0  0  0
   19.0990  -23.0079    0.0000 C   0  0  0  0  0  0  0  0  0  0  0  0
   19.1853  -23.8283    0.0000 N   0  0  0  0  0  0  0  0  0  0  0  0
   19.9923  -23.9999    0.0000 C   0  0  0  0  0  0  0  0  0  0  0  0
   20.4047  -23.2854    0.0000 C   0  0  0  0  0  0  0  0  0  0  0  0
   19.8527  -22.6723    0.0000 S   0  0  0  0  0  0  0  0  0  0  0  0
   21.2252  -23.1992    0.0000 C   0  0  0  0  0  0  0  0  0  0  0  0
   21.7102  -23.8666    0.0000 C   0  0  0  0  0  0  0  0  0  0  0  0
   20.3278  -24.7536    0.0000 C   0  0  0  0  0  0  0  0  0  0  0  0
   22.5306  -23.7804    0.0000 C   0  0  0  0  0  0  0  0  0  0  0  0
   23.0156  -24.4478    0.0000 C   0  0  0  0  0  0  0  0  0  0  0  0
   22.6800  -25.2015    0.0000 C   0  0  0  0  0  0  0  0  0  0  0  0
   23.1649  -25.8689    0.0000 C   0  0  0  0  0  0  0  0  0  0  0  0
   23.9854  -25.7827    0.0000 C   0  0  0  0  0  0  0  0  0  0  0  0
   24.3210  -25.0290    0.0000 C   0  0  0  0  0  0  0  0  0  0  0  0
   23.8360  -24.3616    0.0000 C   0  0  0  0  0  0  0  0  0  0  0  0
   24.4703  -26.4501    0.0000 C   0  0  0  0  0  0  0  0  0  0  0  0
   22.8662  -23.0267    0.0000 N   0  0  0  0  0  0  0  0  0  0  0  0
   21.5608  -22.4455    0.0000 N   0  0  0  0  0  0  0  0  0  0  0  0
   21.3771  -21.7598    0.0000 C   0  0  0  0  0  0  0  0  0  0  0  0
   21.9584  -21.1784    0.0000 C   0  0  0  0  0  0  0  0  0  0  0  0
   21.7456  -20.3843    0.0000 C   0  0  0  0  0  0  0  0  0  0  0  0
   20.9515  -20.1715    0.0000 C   0  0  0  0  0  0  0  0  0  0  0  0
   20.3701  -20.7529    0.0000 C   0  0  0  0  0  0  0  0  0  0  0  0
   20.5829  -21.5470    0.0000 C   0  0  0  0  0  0  0  0  0  0  0  0
  1  2  2  0  0  0  0
  2  3  1  0  0  0  0
  3  4  2  0  0  0  0
  4  5  1  0  0  0  0
  4  7  1  0  0  0  0
  5  6  2  0  0  0  0
  6  1  1  0  0  0  0
  7  8  1  0  0  0  0
  8  9  1  0  0  0  0
  8 11  2  0  0  0  0
  9 10  2  0  0  0  0
  9 12  1  0  0  0  0
 10  5  1  0  0  0  0
 12 13  2  0  0  0  0
 12 14  1  0  0  0  0
 13 15  1  0  0  0  0
 15 16  1  0  0  0  0
 16 17  2  0  0  0  0
 17 18  1  0  0  0  0
 18 19  2  0  0  0  0
 18 23  1  0  0  0  0
 19 20  1  0  0  0  0
 19 21  1  0  0  0  0
 20 16  1  0  0  0  0
 21 22  2  0  0  0  0
 21 33  1  0  0  0  0
 22 24  1  0  0  0  0
 24 25  1  0  0  0  0
 24 32  2  0  0  0  0
 25 26  2  0  0  0  0
 26 27  1  0  0  0  0
 27 28  2  0  0  0  0
 28 29  1  0  0  0  0
 28 31  1  0  0  0  0
 29 30  2  0  0  0  0
 30 25  1  0  0  0  0
 32 33  1  0  0  0  0
 33 34  1  0  0  0  0
 34 35  2  0  0  0  0
 34 39  1  0  0  0  0
 35 36  1  0  0  0  0
 36 37  2  0  0  0  0
 37 38  1  0  0  0  0
 38 39  2  0  0  0  0
M  END
>  <Name>
C2_9a

$$$$
C2_9b
 OpenBabel11182102372D

 40 45  0  0  0  0  0  0  0  0999 V2000
    0.4044  -27.3684    0.0000 C   0  0  0  0  0  0  0  0  0  0  0  0
    0.4044  -28.1934    0.0000 C   0  0  0  0  0  0  0  0  0  0  0  0
    1.1189  -28.6059    0.0000 C   0  0  0  0  0  0  0  0  0  0  0  0
    1.8334  -28.1934    0.0000 C   0  0  0  0  0  0  0  0  0  0  0  0
    1.8334  -27.3684    0.0000 C   0  0  0  0  0  0  0  0  0  0  0  0
    1.1189  -26.9559    0.0000 C   0  0  0  0  0  0  0  0  0  0  0  0
    2.5478  -28.6059    0.0000 O   0  0  0  0  0  0  0  0  0  0  0  0
    3.2623  -28.1934    0.0000 C   0  0  0  0  0  0  0  0  0  0  0  0
    3.2623  -27.3684    0.0000 C   0  0  0  0  0  0  0  0  0  0  0  0
    2.5478  -26.9559    0.0000 C   0  0  0  0  0  0  0  0  0  0  0  0
    3.9768  -28.6059    0.0000 O   0  0  0  0  0  0  0  0  0  0  0  0
    3.9768  -26.9559    0.0000 C   0  0  0  0  0  0  0  0  0  0  0  0
    4.6912  -27.3684    0.0000 N   0  0  0  0  0  0  0  0  0  0  0  0
    3.9768  -26.1309    0.0000 C   0  0  0  0  0  0  0  0  0  0  0  0
    5.4057  -26.9559    0.0000 N   0  0  0  0  0  0  0  0  0  0  0  0
    6.1202  -27.3684    0.0000 C   0  0  0  0  0  0  0  0  0  0  0  0
    6.2064  -28.1888    0.0000 N   0  0  0  0  0  0  0  0  0  0  0  0
    7.0134  -28.3604    0.0000 C   0  0  0  0  0  0  0  0  0  0  0  0
    7.4259  -27.6459    0.0000 C   0  0  0  0  0  0  0  0  0  0  0  0
    6.8739  -27.0328    0.0000 S   0  0  0  0  0  0  0  0  0  0  0  0
    8.2464  -27.5597    0.0000 C   0  0  0  0  0  0  0  0  0  0  0  0
    8.7313  -28.2271    0.0000 C   0  0  0  0  0  0  0  0  0  0  0  0
    7.3490  -29.1141    0.0000 C   0  0  0  0  0  0  0  0  0  0  0  0
    9.5518  -28.1409    0.0000 C   0  0  0  0  0  0  0  0  0  0  0  0
   10.0367  -28.8083    0.0000 C   0  0  0  0  0  0  0  0  0  0  0  0
    9.7012  -29.5620    0.0000 C   0  0  0  0  0  0  0  0  0  0  0  0
   10.1861  -30.2294    0.0000 C   0  0  0  0  0  0  0  0  0  0  0  0
   11.0066  -30.1432    0.0000 C   0  0  0  0  0  0  0  0  0  0  0  0
   11.3421  -29.3895    0.0000 C   0  0  0  0  0  0  0  0  0  0  0  0
   10.8572  -28.7221    0.0000 C   0  0  0  0  0  0  0  0  0  0  0  0
   11.4915  -30.8106    0.0000 O   0  0  0  0  0  0  0  0  0  0  0  0
    9.8873  -27.3872    0.0000 N   0  0  0  0  0  0  0  0  0  0  0  0
    8.5819  -26.8060    0.0000 N   0  0  0  0  0  0  0  0  0  0  0  0
    8.3982  -26.1203    0.0000 C   0  0  0  0  0  0  0  0  0  0  0  0
   11.9752  -31.4764    0.0000 C   0  0  0  0  0  0  0  0  0  0  0  0
    8.9795  -25.5389    0.0000 C   0  0  0  0  0  0  0  0  0  0  0  0
    8.7668  -24.7448    0.0000 C   0  0  0  0  0  0  0  0  0  0  0  0
    7.9726  -24.5320    0.0000 C   0  0  0  0  0  0  0  0  0  0  0  0
    7.3913  -25.1134    0.0000 C   0  0  0  0  0  0  0  0  0  0  0  0
    7.6041  -25.9075    0.0000 C   0  0  0  0  0  0  0  0  0  0  0  0
  1  2  2  0  0  0  0
  2  3  1  0  0  0  0
  3  4  2  0  0  0  0
  4  5  1  0  0  0  0
  4  7  1  0  0  0  0
  5  6  2  0  0  0  0
  6  1  1  0  0  0  0
  7  8  1  0  0  0  0
  8  9  1  0  0  0  0
  8 11  2  0  0  0  0
  9 10  2  0  0  0  0
  9 12  1  0  0  0  0
 10  5  1  0  0  0  0
 12 13  2  0  0  0  0
 12 14  1  0  0  0  0
 13 15  1  0  0  0  0
 15 16  1  0  0  0  0
 16 17  2  0  0  0  0
 17 18  1  0  0  0  0
 18 19  2  0  0  0  0
 18 23  1  0  0  0  0
 19 20  1  0  0  0  0
 19 21  1  0  0  0  0
 20 16  1  0  0  0  0
 21 22  2  0  0  0  0
 21 33  1  0  0  0  0
 22 24  1  0  0  0  0
 24 25  1  0  0  0  0
 24 32  2  0  0  0  0
 25 26  2  0  0  0  0
 26 27  1  0  0  0  0
 27 28  2  0  0  0  0
 28 29  1  0  0  0  0
 28 31  1  0  0  0  0
 29 30  2  0  0  0  0
 30 25  1  0  0  0  0
 31 35  1  0  0  0  0
 32 33  1  0  0  0  0
 33 34  1  0  0  0  0
 34 36  2  0  0  0  0
 34 40  1  0  0  0  0
 36 37  1  0  0  0  0
 37 38  2  0  0  0  0
 38 39  1  0  0  0  0
 39 40  2  0  0  0  0
M  END
>  <Name>
C2_9b

$$$$
C2_9c
 OpenBabel11182102372D

 40 45  0  0  0  0  0  0  0  0999 V2000
   12.9297  -28.5125    0.0000 C   0  0  0  0  0  0  0  0  0  0  0  0
   12.9297  -29.3375    0.0000 C   0  0  0  0  0  0  0  0  0  0  0  0
   13.6442  -29.7500    0.0000 C   0  0  0  0  0  0  0  0  0  0  0  0
   14.3587  -29.3375    0.0000 C   0  0  0  0  0  0  0  0  0  0  0  0
   14.3587  -28.5125    0.0000 C   0  0  0  0  0  0  0  0  0  0  0  0
   13.6442  -28.1000    0.0000 C   0  0  0  0  0  0  0  0  0  0  0  0
   15.0731  -29.7500    0.0000 O   0  0  0  0  0  0  0  0  0  0  0  0
   15.7876  -29.3375    0.0000 C   0  0  0  0  0  0  0  0  0  0  0  0
   15.7876  -28.5125    0.0000 C   0  0  0  0  0  0  0  0  0  0  0  0
   15.0731  -28.1000    0.0000 C   0  0  0  0  0  0  0  0  0  0  0  0
   16.5021  -29.7500    0.0000 O   0  0  0  0  0  0  0  0  0  0  0  0
   16.5021  -28.1000    0.0000 C   0  0  0  0  0  0  0  0  0  0  0  0
   17.2165  -28.5125    0.0000 N   0  0  0  0  0  0  0  0  0  0  0  0
   16.5021  -27.2750    0.0000 C   0  0  0  0  0  0  0  0  0  0  0  0
   17.9310  -28.1000    0.0000 N   0  0  0  0  0  0  0  0  0  0  0  0
   18.6455  -28.5125    0.0000 C   0  0  0  0  0  0  0  0  0  0  0  0
   18.7317  -29.3330    0.0000 N   0  0  0  0  0  0  0  0  0  0  0  0
   19.5387  -29.5045    0.0000 C   0  0  0  0  0  0  0  0  0  0  0  0
   19.9512  -28.7900    0.0000 C   0  0  0  0  0  0  0  0  0  0  0  0
   19.3992  -28.1769    0.0000 S   0  0  0  0  0  0  0  0  0  0  0  0
   20.7717  -28.7038    0.0000 C   0  0  0  0  0  0  0  0  0  0  0  0
   21.2566  -29.3712    0.0000 C   0  0  0  0  0  0  0  0  0  0  0  0
   19.8743  -30.2582    0.0000 C   0  0  0  0  0  0  0  0  0  0  0  0
   22.0771  -29.2850    0.0000 C   0  0  0  0  0  0  0  0  0  0  0  0
   22.5620  -29.9524    0.0000 C   0  0  0  0  0  0  0  0  0  0  0  0
   22.2265  -30.7061    0.0000 C   0  0  0  0  0  0  0  0  0  0  0  0
   22.7114  -31.3736    0.0000 C   0  0  0  0  0  0  0  0  0  0  0  0
   23.5319  -31.2873    0.0000 C   0  0  0  0  0  0  0  0  0  0  0  0
   23.8674  -30.5336    0.0000 C   0  0  0  0  0  0  0  0  0  0  0  0
   23.3825  -29.8662    0.0000 C   0  0  0  0  0  0  0  0  0  0  0  0
   24.0168  -31.9548    0.0000 Cl  0  0  0  0  0  0  0  0  0  0  0  0
   22.4126  -28.5313    0.0000 N   0  0  0  0  0  0  0  0  0  0  0  0
   21.1072  -27.9501    0.0000 N   0  0  0  0  0  0  0  0  0  0  0  0
   20.9235  -27.2644    0.0000 C   0  0  0  0  0  0  0  0  0  0  0  0
   23.7181  -29.1125    0.0000 Cl  0  0  0  0  0  0  0  0  0  0  0  0
   21.5048  -26.6831    0.0000 C   0  0  0  0  0  0  0  0  0  0  0  0
   21.2921  -25.8890    0.0000 C   0  0  0  0  0  0  0  0  0  0  0  0
   20.4979  -25.6762    0.0000 C   0  0  0  0  0  0  0  0  0  0  0  0
   19.9166  -26.2575    0.0000 C   0  0  0  0  0  0  0  0  0  0  0  0
   20.1294  -27.0516    0.0000 C   0  0  0  0  0  0  0  0  0  0  0  0
  1  2  2  0  0  0  0
  2  3  1  0  0  0  0
  3  4  2  0  0  0  0
  4  5  1  0  0  0  0
  4  7  1  0  0  0  0
  5  6  2  0  0  0  0
  6  1  1  0  0  0  0
  7  8  1  0  0  0  0
  8  9  1  0  0  0  0
  8 11  2  0  0  0  0
  9 10  2  0  0  0  0
  9 12  1  0  0  0  0
 10  5  1  0  0  0  0
 12 13  2  0  0  0  0
 12 14  1  0  0  0  0
 13 15  1  0  0  0  0
 15 16  1  0  0  0  0
 16 17  2  0  0  0  0
 17 18  1  0  0  0  0
 18 19  2  0  0  0  0
 18 23  1  0  0  0  0
 19 20  1  0  0  0  0
 19 21  1  0  0  0  0
 20 16  1  0  0  0  0
 21 22  2  0  0  0  0
 21 33  1  0  0  0  0
 22 24  1  0  0  0  0
 24 25  1  0  0  0  0
 24 32  2  0  0  0  0
 25 26  2  0  0  0  0
 26 27  1  0  0  0  0
 27 28  2  0  0  0  0
 28 29  1  0  0  0  0
 28 31  1  0  0  0  0
 29 30  2  0  0  0  0
 30 25  1  0  0  0  0
 30 35  1  0  0  0  0
 32 33  1  0  0  0  0
 33 34  1  0  0  0  0
 34 36  2  0  0  0  0
 34 40  1  0  0  0  0
 36 37  1  0  0  0  0
 37 38  2  0  0  0  0
 38 39  1  0  0  0  0
 39 40  2  0  0  0  0
M  END
>  <Name>
C2_9c

$$$$
C3_11
 OpenBabel11182102372D

 36 40  0  0  0  0  0  0  0  0999 V2000
    1.3442  -23.2286    0.0000 C   0  0  0  0  0  0  0  0  0  0  0  0
    1.3442  -24.1362    0.0000 C   0  0  0  0  0  0  0  0  0  0  0  0
    2.1302  -24.5900    0.0000 C   0  0  0  0  0  0  0  0  0  0  0  0
    2.9163  -24.1362    0.0000 C   0  0  0  0  0  0  0  0  0  0  0  0
    2.9163  -23.2286    0.0000 C   0  0  0  0  0  0  0  0  0  0  0  0
    2.1302  -22.7748    0.0000 C   0  0  0  0  0  0  0  0  0  0  0  0
    3.7023  -24.5900    0.0000 O   0  0  0  0  0  0  0  0  0  0  0  0
    4.4884  -24.1362    0.0000 C   0  0  0  0  0  0  0  0  0  0  0  0
    4.4884  -23.2286    0.0000 C   0  0  0  0  0  0  0  0  0  0  0  0
    3.7023  -22.7748    0.0000 C   0  0  0  0  0  0  0  0  0  0  0  0
    5.2744  -24.5900    0.0000 O   0  0  0  0  0  0  0  0  0  0  0  0
    5.2744  -22.7748    0.0000 C   0  0  0  0  0  0  0  0  0  0  0  0
    6.0604  -23.2286    0.0000 N   0  0  0  0  0  0  0  0  0  0  0  0
    5.2744  -21.8671    0.0000 C   0  0  0  0  0  0  0  0  0  0  0  0
    6.8465  -22.7748    0.0000 N   0  0  0  0  0  0  0  0  0  0  0  0
    7.6325  -23.2286    0.0000 C   0  0  0  0  0  0  0  0  0  0  0  0
    7.7274  -24.1312    0.0000 N   0  0  0  0  0  0  0  0  0  0  0  0
    8.6152  -24.3200    0.0000 C   0  0  0  0  0  0  0  0  0  0  0  0
    9.0690  -23.5339    0.0000 C   0  0  0  0  0  0  0  0  0  0  0  0
    8.4617  -22.8594    0.0000 S   0  0  0  0  0  0  0  0  0  0  0  0
    9.9717  -23.4390    0.0000 C   0  0  0  0  0  0  0  0  0  0  0  0
   10.5790  -24.1135    0.0000 C   0  0  0  0  0  0  0  0  0  0  0  0
    8.9844  -25.1491    0.0000 C   0  0  0  0  0  0  0  0  0  0  0  0
   11.4082  -23.7444    0.0000 C   0  0  0  0  0  0  0  0  0  0  0  0
   12.1942  -24.1982    0.0000 C   0  0  0  0  0  0  0  0  0  0  0  0
   12.1942  -25.1058    0.0000 C   0  0  0  0  0  0  0  0  0  0  0  0
   12.9802  -25.5597    0.0000 C   0  0  0  0  0  0  0  0  0  0  0  0
   13.7663  -25.1058    0.0000 C   0  0  0  0  0  0  0  0  0  0  0  0
   13.7663  -24.1982    0.0000 C   0  0  0  0  0  0  0  0  0  0  0  0
   12.9802  -23.7444    0.0000 C   0  0  0  0  0  0  0  0  0  0  0  0
   10.4255  -22.6530    0.0000 N   0  0  0  0  0  0  0  0  0  0  0  0
   11.3133  -22.8417    0.0000 N   0  0  0  0  0  0  0  0  0  0  0  0
   11.9878  -22.2344    0.0000 C   0  0  0  0  0  0  0  0  0  0  0  0
   11.7991  -21.3466    0.0000 N   0  0  0  0  0  0  0  0  0  0  0  0
   12.8510  -22.5149    0.0000 S   0  0  0  0  0  0  0  0  0  0  0  0
   12.4736  -20.7393    0.0000 N   0  0  0  0  0  0  0  0  0  0  0  0
  1  2  2  0  0  0  0
  2  3  1  0  0  0  0
  3  4  2  0  0  0  0
  4  5  1  0  0  0  0
  4  7  1  0  0  0  0
  5  6  2  0  0  0  0
  6  1  1  0  0  0  0
  7  8  1  0  0  0  0
  8  9  1  0  0  0  0
  8 11  2  0  0  0  0
  9 10  2  0  0  0  0
  9 12  1  0  0  0  0
 10  5  1  0  0  0  0
 12 13  2  0  0  0  0
 12 14  1  0  0  0  0
 13 15  1  0  0  0  0
 15 16  1  0  0  0  0
 16 17  2  0  0  0  0
 17 18  1  0  0  0  0
 18 19  2  0  0  0  0
 18 23  1  0  0  0  0
 19 20  1  0  0  0  0
 19 21  1  0  0  0  0
 20 16  1  0  0  0  0
 21 22  1  0  0  0  0
 22 24  2  0  0  0  0
 24 25  1  0  0  0  0
 24 32  1  0  0  0  0
 25 26  2  0  0  0  0
 26 27  1  0  0  0  0
 27 28  2  0  0  0  0
 28 29  1  0  0  0  0
 29 30  2  0  0  0  0
 30 25  1  0  0  0  0
 31 21  2  0  0  0  0
 31 32  1  0  0  0  0
 32 33  1  0  0  0  0
 33 34  1  0  0  0  0
 33 35  2  0  0  0  0
 34 36  1  0  0  0  0
M  END
>  <Name>
C3_11

$$$$
C3_13
 OpenBabel11182102372D

 39 44  0  0  0  0  0  0  0  0999 V2000
    1.0232  -30.2542    0.0000 C   0  0  0  0  0  0  0  0  0  0  0  0
    1.0232  -31.1712    0.0000 C   0  0  0  0  0  0  0  0  0  0  0  0
    1.8173  -31.6297    0.0000 C   0  0  0  0  0  0  0  0  0  0  0  0
    2.6114  -31.1712    0.0000 C   0  0  0  0  0  0  0  0  0  0  0  0
    2.6114  -30.2542    0.0000 C   0  0  0  0  0  0  0  0  0  0  0  0
    1.8173  -29.7958    0.0000 C   0  0  0  0  0  0  0  0  0  0  0  0
    3.4055  -31.6297    0.0000 O   0  0  0  0  0  0  0  0  0  0  0  0
    4.1996  -31.1712    0.0000 C   0  0  0  0  0  0  0  0  0  0  0  0
    4.1996  -30.2542    0.0000 C   0  0  0  0  0  0  0  0  0  0  0  0
    3.4055  -29.7958    0.0000 C   0  0  0  0  0  0  0  0  0  0  0  0
    4.9937  -31.6297    0.0000 O   0  0  0  0  0  0  0  0  0  0  0  0
    4.9937  -29.7958    0.0000 C   0  0  0  0  0  0  0  0  0  0  0  0
    5.7879  -30.2542    0.0000 N   0  0  0  0  0  0  0  0  0  0  0  0
    4.9937  -28.8788    0.0000 C   0  0  0  0  0  0  0  0  0  0  0  0
    6.5820  -29.7958    0.0000 N   0  0  0  0  0  0  0  0  0  0  0  0
    7.3761  -30.2542    0.0000 C   0  0  0  0  0  0  0  0  0  0  0  0
    7.4719  -31.1662    0.0000 N   0  0  0  0  0  0  0  0  0  0  0  0
    8.3689  -31.3568    0.0000 C   0  0  0  0  0  0  0  0  0  0  0  0
    8.8273  -30.5627    0.0000 C   0  0  0  0  0  0  0  0  0  0  0  0
    8.2138  -29.8813    0.0000 S   0  0  0  0  0  0  0  0  0  0  0  0
    8.7418  -32.1945    0.0000 C   0  0  0  0  0  0  0  0  0  0  0  0
    9.6380  -29.2287    0.0000 C   0  0  0  0  0  0  0  0  0  0  0  0
    9.6380  -30.1642    0.0000 C   0  0  0  0  0  0  0  0  0  0  0  0
   10.4482  -30.6320    0.0000 N   0  0  0  0  0  0  0  0  0  0  0  0
   11.2584  -30.1642    0.0000 C   0  0  0  0  0  0  0  0  0  0  0  0
   11.2584  -29.2287    0.0000 C   0  0  0  0  0  0  0  0  0  0  0  0
   10.4482  -28.7609    0.0000 C   0  0  0  0  0  0  0  0  0  0  0  0
   12.0686  -30.6320    0.0000 N   0  0  0  0  0  0  0  0  0  0  0  0
   12.8788  -30.1642    0.0000 C   0  0  0  0  0  0  0  0  0  0  0  0
   12.8788  -29.2287    0.0000 N   0  0  0  0  0  0  0  0  0  0  0  0
   12.0686  -28.7609    0.0000 C   0  0  0  0  0  0  0  0  0  0  0  0
   12.0686  -27.8254    0.0000 O   0  0  0  0  0  0  0  0  0  0  0  0
   13.6890  -30.6320    0.0000 S   0  0  0  0  0  0  0  0  0  0  0  0
   10.4482  -27.8254    0.0000 C   0  0  0  0  0  0  0  0  0  0  0  0
   11.2342  -27.3715    0.0000 C   0  0  0  0  0  0  0  0  0  0  0  0
   11.2342  -26.4639    0.0000 C   0  0  0  0  0  0  0  0  0  0  0  0
   10.4482  -26.0101    0.0000 C   0  0  0  0  0  0  0  0  0  0  0  0
    9.6621  -26.4639    0.0000 C   0  0  0  0  0  0  0  0  0  0  0  0
    9.6621  -27.3715    0.0000 C   0  0  0  0  0  0  0  0  0  0  0  0
  1  2  2  0  0  0  0
  2  3  1  0  0  0  0
  3  4  2  0  0  0  0
  4  5  1  0  0  0  0
  4  7  1  0  0  0  0
  5  6  2  0  0  0  0
  6  1  1  0  0  0  0
  7  8  1  0  0  0  0
  8  9  1  0  0  0  0
  8 11  2  0  0  0  0
  9 10  2  0  0  0  0
  9 12  1  0  0  0  0
 10  5  1  0  0  0  0
 12 13  2  0  0  0  0
 12 14  1  0  0  0  0
 13 15  1  0  0  0  0
 15 16  1  0  0  0  0
 16 17  2  0  0  0  0
 17 18  1  0  0  0  0
 18 19  2  0  0  0  0
 18 21  1  0  0  0  0
 19 20  1  0  0  0  0
 19 23  1  0  0  0  0
 20 16  1  0  0  0  0
 22 23  1  0  0  0  0
 23 24  2  0  0  0  0
 24 25  1  0  0  0  0
 25 26  2  0  0  0  0
 25 28  1  0  0  0  0
 26 27  1  0  0  0  0
 27 22  2  0  0  0  0
 27 34  1  0  0  0  0
 28 29  1  0  0  0  0
 29 30  1  0  0  0  0
 29 33  2  0  0  0  0
 30 31  1  0  0  0  0
 31 26  1  0  0  0  0
 31 32  2  0  0  0  0
 34 35  2  0  0  0  0
 34 39  1  0  0  0  0
 35 36  1  0  0  0  0
 36 37  2  0  0  0  0
 37 38  1  0  0  0  0
 38 39  2  0  0  0  0
M  END
>  <Name>
C3_13

$$$$
C3_17a
 OpenBabel11182102372D

 52 59  0  0  0  0  0  0  0  0999 V2000
   15.3471   -7.2635    0.0000 C   0  0  0  0  0  0  0  0  0  0  0  0
   15.6815   -8.0146    0.0000 C   0  0  0  0  0  0  0  0  0  0  0  0
   16.4991   -8.1005    0.0000 C   0  0  0  0  0  0  0  0  0  0  0  0
   16.9823   -7.4354    0.0000 C   0  0  0  0  0  0  0  0  0  0  0  0
   16.6479   -6.6844    0.0000 C   0  0  0  0  0  0  0  0  0  0  0  0
   15.8303   -6.5984    0.0000 C   0  0  0  0  0  0  0  0  0  0  0  0
   17.8000   -7.5214    0.0000 O   0  0  0  0  0  0  0  0  0  0  0  0
   18.2832   -6.8562    0.0000 C   0  0  0  0  0  0  0  0  0  0  0  0
   17.9488   -6.1052    0.0000 C   0  0  0  0  0  0  0  0  0  0  0  0
   17.1312   -6.0192    0.0000 C   0  0  0  0  0  0  0  0  0  0  0  0
   19.1008   -6.9422    0.0000 O   0  0  0  0  0  0  0  0  0  0  0  0
   18.4321   -5.4401    0.0000 C   0  0  0  0  0  0  0  0  0  0  0  0
   19.2497   -5.5260    0.0000 N   0  0  0  0  0  0  0  0  0  0  0  0
   18.0977   -4.6890    0.0000 C   0  0  0  0  0  0  0  0  0  0  0  0
   19.7329   -4.8609    0.0000 N   0  0  0  0  0  0  0  0  0  0  0  0
   20.5506   -4.9468    0.0000 C   0  0  0  0  0  0  0  0  0  0  0  0
   20.9616   -5.6588    0.0000 N   0  0  0  0  0  0  0  0  0  0  0  0
   21.7658   -5.4879    0.0000 C   0  0  0  0  0  0  0  0  0  0  0  0
   21.8517   -4.6702    0.0000 C   0  0  0  0  0  0  0  0  0  0  0  0
   21.1007   -4.3358    0.0000 S   0  0  0  0  0  0  0  0  0  0  0  0
   22.5637   -4.2592    0.0000 C   0  0  0  0  0  0  0  0  0  0  0  0
   22.3768   -6.0380    0.0000 C   0  0  0  0  0  0  0  0  0  0  0  0
   23.2757   -4.6702    0.0000 N   0  0  0  0  0  0  0  0  0  0  0  0
   23.9877   -4.2592    0.0000 C   0  0  0  0  0  0  0  0  0  0  0  0
   23.9877   -3.4370    0.0000 C   0  0  0  0  0  0  0  0  0  0  0  0
   23.2757   -3.0260    0.0000 C   0  0  3  0  0  0  0  0  0  0  0  0
   22.5637   -3.4370    0.0000 C   0  0  0  0  0  0  0  0  0  0  0  0
   24.6997   -4.6702    0.0000 N   0  0  0  0  0  0  0  0  0  0  0  0
   25.4117   -4.2592    0.0000 C   0  0  0  0  0  0  0  0  0  0  0  0
   25.4117   -3.4370    0.0000 N   0  0  0  0  0  0  0  0  0  0  0  0
   24.6997   -3.0260    0.0000 C   0  0  0  0  0  0  0  0  0  0  0  0
   23.2757   -2.2038    0.0000 C   0  0  0  0  0  0  0  0  0  0  0  0
   23.9877   -1.7928    0.0000 C   0  0  0  0  0  0  0  0  0  0  0  0
   23.9877   -0.9706    0.0000 C   0  0  0  0  0  0  0  0  0  0  0  0
   23.2757   -0.5595    0.0000 C   0  0  0  0  0  0  0  0  0  0  0  0
   22.5637   -0.9706    0.0000 C   0  0  0  0  0  0  0  0  0  0  0  0
   22.5637   -1.7928    0.0000 C   0  0  0  0  0  0  0  0  0  0  0  0
   24.6997   -2.2038    0.0000 O   0  0  0  0  0  0  0  0  0  0  0  0
   26.1936   -4.5132    0.0000 N   0  0  0  0  0  0  0  0  0  0  0  0
   26.6768   -3.8481    0.0000 N   0  0  0  0  0  0  0  0  0  0  0  0
   26.1936   -3.1830    0.0000 C   0  0  0  0  0  0  0  0  0  0  0  0
   26.4476   -2.4011    0.0000 C   0  0  0  0  0  0  0  0  0  0  0  0
   26.4476   -5.2951    0.0000 C   0  0  0  0  0  0  0  0  0  0  0  0
   25.8956   -5.9082    0.0000 C   0  0  0  0  0  0  0  0  0  0  0  0
   26.1506   -6.6928    0.0000 C   0  0  0  0  0  0  0  0  0  0  0  0
   26.9575   -6.8644    0.0000 C   0  0  0  0  0  0  0  0  0  0  0  0
   27.5096   -6.2513    0.0000 C   0  0  0  0  0  0  0  0  0  0  0  0
   27.2546   -5.4666    0.0000 C   0  0  0  0  0  0  0  0  0  0  0  0
   25.8975   -1.7901    0.0000 O   0  0  0  0  0  0  0  0  0  0  0  0
   27.2518   -2.2301    0.0000 C   0  0  0  0  0  0  0  0  0  0  0  0
   27.2125   -7.6490    0.0000 O   0  0  0  0  0  0  0  0  0  0  0  0
   27.4665   -8.4309    0.0000 C   0  0  0  0  0  0  0  0  0  0  0  0
  1  2  2  0  0  0  0
  2  3  1  0  0  0  0
  3  4  2  0  0  0  0
  4  5  1  0  0  0  0
  4  7  1  0  0  0  0
  5  6  2  0  0  0  0
  6  1  1  0  0  0  0
  7  8  1  0  0  0  0
  8  9  1  0  0  0  0
  8 11  2  0  0  0  0
  9 10  2  0  0  0  0
  9 12  1  0  0  0  0
 10  5  1  0  0  0  0
 12 13  2  0  0  0  0
 12 14  1  0  0  0  0
 13 15  1  0  0  0  0
 15 16  1  0  0  0  0
 16 17  2  0  0  0  0
 17 18  1  0  0  0  0
 18 19  2  0  0  0  0
 18 22  1  0  0  0  0
 19 20  1  0  0  0  0
 19 21  1  0  0  0  0
 20 16  1  0  0  0  0
 21 23  1  0  0  0  0
 23 24  1  0  0  0  0
 24 25  2  0  0  0  0
 24 28  1  0  0  0  0
 25 26  1  0  0  0  0
 26 27  1  0  0  0  0
 26 32  1  0  0  0  0
 27 21  2  0  0  0  0
 28 29  2  0  0  0  0
 29 30  1  0  0  0  0
 29 39  1  0  0  0  0
 30 31  1  0  0  0  0
 31 25  1  0  0  0  0
 31 38  2  0  0  0  0
 32 33  2  0  0  0  0
 33 34  1  0  0  0  0
 34 35  2  0  0  0  0
 35 36  1  0  0  0  0
 36 37  2  0  0  0  0
 37 32  1  0  0  0  0
 39 40  1  0  0  0  0
 39 43  1  0  0  0  0
 40 41  2  0  0  0  0
 41 30  1  0  0  0  0
 41 42  1  0  0  0  0
 42 49  2  0  0  0  0
 42 50  1  0  0  0  0
 43 44  2  0  0  0  0
 44 45  1  0  0  0  0
 45 46  2  0  0  0  0
 46 47  1  0  0  0  0
 46 51  1  0  0  0  0
 47 48  2  0  0  0  0
 48 43  1  0  0  0  0
 51 52  1  0  0  0  0
M  END
>  <Name>
C3_17a

$$$$
C3_17b
 OpenBabel11182102372D

 51 58  0  0  0  0  0  0  0  0999 V2000
   14.9744  -15.0227    0.0000 C   0  0  0  0  0  0  0  0  0  0  0  0
   15.3088  -15.7737    0.0000 C   0  0  0  0  0  0  0  0  0  0  0  0
   16.1264  -15.8597    0.0000 C   0  0  0  0  0  0  0  0  0  0  0  0
   16.6097  -15.1946    0.0000 C   0  0  0  0  0  0  0  0  0  0  0  0
   16.2753  -14.4435    0.0000 C   0  0  0  0  0  0  0  0  0  0  0  0
   15.4577  -14.3576    0.0000 C   0  0  0  0  0  0  0  0  0  0  0  0
   17.4273  -15.2805    0.0000 O   0  0  0  0  0  0  0  0  0  0  0  0
   17.9105  -14.6154    0.0000 C   0  0  0  0  0  0  0  0  0  0  0  0
   17.5762  -13.8643    0.0000 C   0  0  0  0  0  0  0  0  0  0  0  0
   16.7585  -13.7784    0.0000 C   0  0  0  0  0  0  0  0  0  0  0  0
   18.7282  -14.7013    0.0000 O   0  0  0  0  0  0  0  0  0  0  0  0
   18.0594  -13.1992    0.0000 C   0  0  0  0  0  0  0  0  0  0  0  0
   18.8770  -13.2851    0.0000 N   0  0  0  0  0  0  0  0  0  0  0  0
   17.7250  -12.4481    0.0000 C   0  0  0  0  0  0  0  0  0  0  0  0
   19.3603  -12.6200    0.0000 N   0  0  0  0  0  0  0  0  0  0  0  0
   20.1779  -12.7059    0.0000 C   0  0  0  0  0  0  0  0  0  0  0  0
   20.5890  -13.4179    0.0000 N   0  0  0  0  0  0  0  0  0  0  0  0
   21.3931  -13.2470    0.0000 C   0  0  0  0  0  0  0  0  0  0  0  0
   21.4791  -12.4294    0.0000 C   0  0  0  0  0  0  0  0  0  0  0  0
   20.7280  -12.0950    0.0000 S   0  0  0  0  0  0  0  0  0  0  0  0
   22.1911  -12.0183    0.0000 C   0  0  0  0  0  0  0  0  0  0  0  0
   22.0041  -13.7971    0.0000 C   0  0  0  0  0  0  0  0  0  0  0  0
   22.9031  -12.4294    0.0000 N   0  0  0  0  0  0  0  0  0  0  0  0
   23.6150  -12.0183    0.0000 C   0  0  0  0  0  0  0  0  0  0  0  0
   23.6150  -11.1962    0.0000 C   0  0  0  0  0  0  0  0  0  0  0  0
   22.9031  -10.7851    0.0000 C   0  0  3  0  0  0  0  0  0  0  0  0
   22.1911  -11.1962    0.0000 C   0  0  0  0  0  0  0  0  0  0  0  0
   24.3270  -12.4294    0.0000 N   0  0  0  0  0  0  0  0  0  0  0  0
   25.0390  -12.0183    0.0000 C   0  0  0  0  0  0  0  0  0  0  0  0
   25.0390  -11.1962    0.0000 N   0  0  0  0  0  0  0  0  0  0  0  0
   24.3270  -10.7851    0.0000 C   0  0  0  0  0  0  0  0  0  0  0  0
   22.9031   -9.9630    0.0000 C   0  0  0  0  0  0  0  0  0  0  0  0
   23.6150   -9.5519    0.0000 C   0  0  0  0  0  0  0  0  0  0  0  0
   23.6150   -8.7298    0.0000 C   0  0  0  0  0  0  0  0  0  0  0  0
   22.9031   -8.3187    0.0000 C   0  0  0  0  0  0  0  0  0  0  0  0
   22.1911   -8.7298    0.0000 C   0  0  0  0  0  0  0  0  0  0  0  0
   22.1911   -9.5519    0.0000 C   0  0  0  0  0  0  0  0  0  0  0  0
   24.3270   -9.9630    0.0000 O   0  0  0  0  0  0  0  0  0  0  0  0
   25.8209  -12.2724    0.0000 N   0  0  0  0  0  0  0  0  0  0  0  0
   26.3042  -11.6072    0.0000 N   0  0  0  0  0  0  0  0  0  0  0  0
   25.8209  -10.9421    0.0000 C   0  0  0  0  0  0  0  0  0  0  0  0
   26.0750  -10.1602    0.0000 C   0  0  0  0  0  0  0  0  0  0  0  0
   26.0750  -13.0543    0.0000 C   0  0  0  0  0  0  0  0  0  0  0  0
   25.5230  -13.6674    0.0000 C   0  0  0  0  0  0  0  0  0  0  0  0
   25.7779  -14.4520    0.0000 C   0  0  0  0  0  0  0  0  0  0  0  0
   26.5849  -14.6235    0.0000 C   0  0  0  0  0  0  0  0  0  0  0  0
   27.1369  -14.0104    0.0000 C   0  0  0  0  0  0  0  0  0  0  0  0
   26.8820  -13.2258    0.0000 C   0  0  0  0  0  0  0  0  0  0  0  0
   25.5249   -9.5493    0.0000 O   0  0  0  0  0  0  0  0  0  0  0  0
   26.8792   -9.9893    0.0000 C   0  0  0  0  0  0  0  0  0  0  0  0
   26.8398  -15.4081    0.0000 Cl  0  0  0  0  0  0  0  0  0  0  0  0
  1  2  2  0  0  0  0
  2  3  1  0  0  0  0
  3  4  2  0  0  0  0
  4  5  1  0  0  0  0
  4  7  1  0  0  0  0
  5  6  2  0  0  0  0
  6  1  1  0  0  0  0
  7  8  1  0  0  0  0
  8  9  1  0  0  0  0
  8 11  2  0  0  0  0
  9 10  2  0  0  0  0
  9 12  1  0  0  0  0
 10  5  1  0  0  0  0
 12 13  2  0  0  0  0
 12 14  1  0  0  0  0
 13 15  1  0  0  0  0
 15 16  1  0  0  0  0
 16 17  2  0  0  0  0
 17 18  1  0  0  0  0
 18 19  2  0  0  0  0
 18 22  1  0  0  0  0
 19 20  1  0  0  0  0
 19 21  1  0  0  0  0
 20 16  1  0  0  0  0
 21 23  1  0  0  0  0
 23 24  1  0  0  0  0
 24 25  2  0  0  0  0
 24 28  1  0  0  0  0
 25 26  1  0  0  0  0
 26 27  1  0  0  0  0
 26 32  1  0  0  0  0
 27 21  2  0  0  0  0
 28 29  2  0  0  0  0
 29 30  1  0  0  0  0
 29 39  1  0  0  0  0
 30 31  1  0  0  0  0
 31 25  1  0  0  0  0
 31 38  2  0  0  0  0
 32 33  2  0  0  0  0
 33 34  1  0  0  0  0
 34 35  2  0  0  0  0
 35 36  1  0  0  0  0
 36 37  2  0  0  0  0
 37 32  1  0  0  0  0
 39 40  1  0  0  0  0
 39 43  1  0  0  0  0
 40 41  2  0  0  0  0
 41 30  1  0  0  0  0
 41 42  1  0  0  0  0
 42 49  2  0  0  0  0
 42 50  1  0  0  0  0
 43 44  2  0  0  0  0
 44 45  1  0  0  0  0
 45 46  2  0  0  0  0
 46 47  1  0  0  0  0
 46 51  1  0  0  0  0
 47 48  2  0  0  0  0
 48 43  1  0  0  0  0
M  END
>  <Name>
C3_17b

$$$$
C3_17c
 OpenBabel11182102372D

 52 59  0  0  0  0  0  0  0  0999 V2000
   15.0895  -23.1337    0.0000 C   0  0  0  0  0  0  0  0  0  0  0  0
   15.4239  -23.8847    0.0000 C   0  0  0  0  0  0  0  0  0  0  0  0
   16.2415  -23.9707    0.0000 C   0  0  0  0  0  0  0  0  0  0  0  0
   16.7248  -23.3056    0.0000 C   0  0  0  0  0  0  0  0  0  0  0  0
   16.3904  -22.5545    0.0000 C   0  0  0  0  0  0  0  0  0  0  0  0
   15.5727  -22.4686    0.0000 C   0  0  0  0  0  0  0  0  0  0  0  0
   17.5424  -23.3915    0.0000 O   0  0  0  0  0  0  0  0  0  0  0  0
   18.0256  -22.7264    0.0000 C   0  0  0  0  0  0  0  0  0  0  0  0
   17.6913  -21.9753    0.0000 C   0  0  0  0  0  0  0  0  0  0  0  0
   16.8736  -21.8894    0.0000 C   0  0  0  0  0  0  0  0  0  0  0  0
   18.8433  -22.8123    0.0000 O   0  0  0  0  0  0  0  0  0  0  0  0
   18.1745  -21.3102    0.0000 C   0  0  0  0  0  0  0  0  0  0  0  0
   18.9921  -21.3961    0.0000 N   0  0  0  0  0  0  0  0  0  0  0  0
   17.8401  -20.5591    0.0000 C   0  0  0  0  0  0  0  0  0  0  0  0
   19.4754  -20.7310    0.0000 N   0  0  0  0  0  0  0  0  0  0  0  0
   20.2930  -20.8169    0.0000 C   0  0  0  0  0  0  0  0  0  0  0  0
   20.7041  -21.5289    0.0000 N   0  0  0  0  0  0  0  0  0  0  0  0
   21.5082  -21.3580    0.0000 C   0  0  0  0  0  0  0  0  0  0  0  0
   21.5942  -20.5404    0.0000 C   0  0  0  0  0  0  0  0  0  0  0  0
   20.8431  -20.2060    0.0000 S   0  0  0  0  0  0  0  0  0  0  0  0
   22.3062  -20.1293    0.0000 C   0  0  0  0  0  0  0  0  0  0  0  0
   22.1192  -21.9081    0.0000 C   0  0  0  0  0  0  0  0  0  0  0  0
   23.0182  -20.5404    0.0000 N   0  0  0  0  0  0  0  0  0  0  0  0
   23.7301  -20.1293    0.0000 C   0  0  0  0  0  0  0  0  0  0  0  0
   23.7301  -19.3072    0.0000 C   0  0  0  0  0  0  0  0  0  0  0  0
   23.0182  -18.8961    0.0000 C   0  0  3  0  0  0  0  0  0  0  0  0
   22.3062  -19.3072    0.0000 C   0  0  0  0  0  0  0  0  0  0  0  0
   24.4421  -20.5404    0.0000 N   0  0  0  0  0  0  0  0  0  0  0  0
   25.1541  -20.1293    0.0000 C   0  0  0  0  0  0  0  0  0  0  0  0
   25.1541  -19.3072    0.0000 N   0  0  0  0  0  0  0  0  0  0  0  0
   24.4421  -18.8961    0.0000 C   0  0  0  0  0  0  0  0  0  0  0  0
   23.0182  -18.0740    0.0000 C   0  0  0  0  0  0  0  0  0  0  0  0
   23.7301  -17.6629    0.0000 C   0  0  0  0  0  0  0  0  0  0  0  0
   23.7301  -16.8408    0.0000 C   0  0  0  0  0  0  0  0  0  0  0  0
   23.0182  -16.4297    0.0000 C   0  0  0  0  0  0  0  0  0  0  0  0
   22.3062  -16.8408    0.0000 C   0  0  0  0  0  0  0  0  0  0  0  0
   22.3062  -17.6629    0.0000 C   0  0  0  0  0  0  0  0  0  0  0  0
   24.4421  -18.0740    0.0000 O   0  0  0  0  0  0  0  0  0  0  0  0
   25.9360  -20.3834    0.0000 N   0  0  0  0  0  0  0  0  0  0  0  0
   26.4193  -19.7182    0.0000 N   0  0  0  0  0  0  0  0  0  0  0  0
   25.9360  -19.0531    0.0000 C   0  0  0  0  0  0  0  0  0  0  0  0
   26.1901  -18.2712    0.0000 C   0  0  0  0  0  0  0  0  0  0  0  0
   26.1901  -21.1653    0.0000 C   0  0  0  0  0  0  0  0  0  0  0  0
   25.6380  -21.7784    0.0000 C   0  0  0  0  0  0  0  0  0  0  0  0
   25.8930  -22.5630    0.0000 C   0  0  0  0  0  0  0  0  0  0  0  0
   26.7000  -22.7345    0.0000 C   0  0  0  0  0  0  0  0  0  0  0  0
   27.2520  -22.1214    0.0000 C   0  0  0  0  0  0  0  0  0  0  0  0
   26.9971  -21.3368    0.0000 C   0  0  0  0  0  0  0  0  0  0  0  0
   25.6400  -17.6602    0.0000 O   0  0  0  0  0  0  0  0  0  0  0  0
   26.9943  -18.1003    0.0000 C   0  0  0  0  0  0  0  0  0  0  0  0
   26.9549  -23.5191    0.0000 Cl  0  0  0  0  0  0  0  0  0  0  0  0
   27.5491  -20.7237    0.0000 Cl  0  0  0  0  0  0  0  0  0  0  0  0
  1  2  2  0  0  0  0
  2  3  1  0  0  0  0
  3  4  2  0  0  0  0
  4  5  1  0  0  0  0
  4  7  1  0  0  0  0
  5  6  2  0  0  0  0
  6  1  1  0  0  0  0
  7  8  1  0  0  0  0
  8  9  1  0  0  0  0
  8 11  2  0  0  0  0
  9 10  2  0  0  0  0
  9 12  1  0  0  0  0
 10  5  1  0  0  0  0
 12 13  2  0  0  0  0
 12 14  1  0  0  0  0
 13 15  1  0  0  0  0
 15 16  1  0  0  0  0
 16 17  2  0  0  0  0
 17 18  1  0  0  0  0
 18 19  2  0  0  0  0
 18 22  1  0  0  0  0
 19 20  1  0  0  0  0
 19 21  1  0  0  0  0
 20 16  1  0  0  0  0
 21 23  1  0  0  0  0
 23 24  1  0  0  0  0
 24 25  2  0  0  0  0
 24 28  1  0  0  0  0
 25 26  1  0  0  0  0
 26 27  1  0  0  0  0
 26 32  1  0  0  0  0
 27 21  2  0  0  0  0
 28 29  2  0  0  0  0
 29 30  1  0  0  0  0
 29 39  1  0  0  0  0
 30 31  1  0  0  0  0
 31 25  1  0  0  0  0
 31 38  2  0  0  0  0
 32 33  2  0  0  0  0
 33 34  1  0  0  0  0
 34 35  2  0  0  0  0
 35 36  1  0  0  0  0
 36 37  2  0  0  0  0
 37 32  1  0  0  0  0
 39 40  1  0  0  0  0
 39 43  1  0  0  0  0
 40 41  2  0  0  0  0
 41 30  1  0  0  0  0
 41 42  1  0  0  0  0
 42 49  2  0  0  0  0
 42 50  1  0  0  0  0
 43 44  2  0  0  0  0
 44 45  1  0  0  0  0
 45 46  2  0  0  0  0
 46 47  1  0  0  0  0
 46 51  1  0  0  0  0
 47 48  2  0  0  0  0
 48 43  1  0  0  0  0
 48 52  1  0  0  0  0
M  END
>  <Name>
C3_17c

$$$$
C3_17d
 OpenBabel11182102372D

 53 60  0  0  0  0  0  0  0  0999 V2000
   14.9451  -30.8310    0.0000 C   0  0  0  0  0  0  0  0  0  0  0  0
   15.2795  -31.5821    0.0000 C   0  0  0  0  0  0  0  0  0  0  0  0
   16.0971  -31.6680    0.0000 C   0  0  0  0  0  0  0  0  0  0  0  0
   16.5803  -31.0029    0.0000 C   0  0  0  0  0  0  0  0  0  0  0  0
   16.2459  -30.2519    0.0000 C   0  0  0  0  0  0  0  0  0  0  0  0
   15.4283  -30.1659    0.0000 C   0  0  0  0  0  0  0  0  0  0  0  0
   17.3980  -31.0888    0.0000 O   0  0  0  0  0  0  0  0  0  0  0  0
   17.8812  -30.4237    0.0000 C   0  0  0  0  0  0  0  0  0  0  0  0
   17.5468  -29.6727    0.0000 C   0  0  0  0  0  0  0  0  0  0  0  0
   16.7292  -29.5867    0.0000 C   0  0  0  0  0  0  0  0  0  0  0  0
   18.6988  -30.5097    0.0000 O   0  0  0  0  0  0  0  0  0  0  0  0
   18.0300  -29.0075    0.0000 C   0  0  0  0  0  0  0  0  0  0  0  0
   18.8477  -29.0935    0.0000 N   0  0  0  0  0  0  0  0  0  0  0  0
   17.6957  -28.2565    0.0000 C   0  0  0  0  0  0  0  0  0  0  0  0
   19.3309  -28.4284    0.0000 N   0  0  0  0  0  0  0  0  0  0  0  0
   20.1485  -28.5143    0.0000 C   0  0  0  0  0  0  0  0  0  0  0  0
   20.5596  -29.2263    0.0000 N   0  0  0  0  0  0  0  0  0  0  0  0
   21.3638  -29.0554    0.0000 C   0  0  0  0  0  0  0  0  0  0  0  0
   21.4497  -28.2377    0.0000 C   0  0  0  0  0  0  0  0  0  0  0  0
   20.6987  -27.9033    0.0000 S   0  0  0  0  0  0  0  0  0  0  0  0
   22.1617  -27.8267    0.0000 C   0  0  0  0  0  0  0  0  0  0  0  0
   21.9748  -29.6055    0.0000 C   0  0  0  0  0  0  0  0  0  0  0  0
   22.8737  -28.2377    0.0000 N   0  0  0  0  0  0  0  0  0  0  0  0
   23.5857  -27.8267    0.0000 C   0  0  0  0  0  0  0  0  0  0  0  0
   23.5857  -27.0045    0.0000 C   0  0  0  0  0  0  0  0  0  0  0  0
   22.8737  -26.5935    0.0000 C   0  0  3  0  0  0  0  0  0  0  0  0
   22.1617  -27.0045    0.0000 C   0  0  0  0  0  0  0  0  0  0  0  0
   24.2977  -28.2377    0.0000 N   0  0  0  0  0  0  0  0  0  0  0  0
   25.0097  -27.8267    0.0000 C   0  0  0  0  0  0  0  0  0  0  0  0
   25.0097  -27.0045    0.0000 N   0  0  0  0  0  0  0  0  0  0  0  0
   24.2977  -26.5935    0.0000 C   0  0  0  0  0  0  0  0  0  0  0  0
   22.8737  -25.7713    0.0000 C   0  0  0  0  0  0  0  0  0  0  0  0
   23.5857  -25.3602    0.0000 C   0  0  0  0  0  0  0  0  0  0  0  0
   23.5857  -24.5381    0.0000 C   0  0  0  0  0  0  0  0  0  0  0  0
   22.8737  -24.1270    0.0000 C   0  0  0  0  0  0  0  0  0  0  0  0
   22.1617  -24.5381    0.0000 C   0  0  0  0  0  0  0  0  0  0  0  0
   22.1617  -25.3602    0.0000 C   0  0  0  0  0  0  0  0  0  0  0  0
   24.2977  -25.7713    0.0000 O   0  0  0  0  0  0  0  0  0  0  0  0
   25.7916  -28.0807    0.0000 N   0  0  0  0  0  0  0  0  0  0  0  0
   26.2748  -27.4156    0.0000 N   0  0  0  0  0  0  0  0  0  0  0  0
   25.7916  -26.7505    0.0000 C   0  0  0  0  0  0  0  0  0  0  0  0
   26.0456  -25.9686    0.0000 C   0  0  0  0  0  0  0  0  0  0  0  0
   26.0456  -28.8626    0.0000 C   0  0  0  0  0  0  0  0  0  0  0  0
   25.4936  -29.4757    0.0000 C   0  0  0  0  0  0  0  0  0  0  0  0
   25.7485  -30.2603    0.0000 C   0  0  0  0  0  0  0  0  0  0  0  0
   26.5555  -30.4319    0.0000 C   0  0  0  0  0  0  0  0  0  0  0  0
   27.1075  -29.8188    0.0000 C   0  0  0  0  0  0  0  0  0  0  0  0
   26.8526  -29.0341    0.0000 C   0  0  0  0  0  0  0  0  0  0  0  0
   25.4955  -25.3576    0.0000 O   0  0  0  0  0  0  0  0  0  0  0  0
   26.8498  -25.7976    0.0000 O   0  0  0  0  0  0  0  0  0  0  0  0
   26.8105  -31.2165    0.0000 C   0  0  0  0  0  0  0  0  0  0  0  0
   28.2062  -26.2383    0.0000 C   0  0  0  0  0  0  0  0  0  0  0  0
   27.6552  -25.6264    0.0000 C   0  0  0  0  0  0  0  0  0  0  0  0
  1  2  2  0  0  0  0
  2  3  1  0  0  0  0
  3  4  2  0  0  0  0
  4  5  1  0  0  0  0
  4  7  1  0  0  0  0
  5  6  2  0  0  0  0
  6  1  1  0  0  0  0
  7  8  1  0  0  0  0
  8  9  1  0  0  0  0
  8 11  2  0  0  0  0
  9 10  2  0  0  0  0
  9 12  1  0  0  0  0
 10  5  1  0  0  0  0
 12 13  2  0  0  0  0
 12 14  1  0  0  0  0
 13 15  1  0  0  0  0
 15 16  1  0  0  0  0
 16 17  2  0  0  0  0
 17 18  1  0  0  0  0
 18 19  2  0  0  0  0
 18 22  1  0  0  0  0
 19 20  1  0  0  0  0
 19 21  1  0  0  0  0
 20 16  1  0  0  0  0
 21 23  1  0  0  0  0
 23 24  1  0  0  0  0
 24 25  2  0  0  0  0
 24 28  1  0  0  0  0
 25 26  1  0  0  0  0
 26 27  1  0  0  0  0
 26 32  1  0  0  0  0
 27 21  2  0  0  0  0
 28 29  2  0  0  0  0
 29 30  1  0  0  0  0
 29 39  1  0  0  0  0
 30 31  1  0  0  0  0
 31 25  1  0  0  0  0
 31 38  2  0  0  0  0
 32 33  2  0  0  0  0
 33 34  1  0  0  0  0
 34 35  2  0  0  0  0
 35 36  1  0  0  0  0
 36 37  2  0  0  0  0
 37 32  1  0  0  0  0
 39 40  1  0  0  0  0
 39 43  1  0  0  0  0
 40 41  2  0  0  0  0
 41 30  1  0  0  0  0
 41 42  1  0  0  0  0
 42 49  2  0  0  0  0
 42 50  1  0  0  0  0
 43 44  2  0  0  0  0
 44 45  1  0  0  0  0
 45 46  2  0  0  0  0
 46 47  1  0  0  0  0
 46 51  1  0  0  0  0
 47 48  2  0  0  0  0
 48 43  1  0  0  0  0
 50 53  1  0  0  0  0
 52 53  1  0  0  0  0
M  END
>  <Name>
C3_17d

$$$$
C3_17e
 OpenBabel11182102372D

 53 60  0  0  0  0  0  0  0  0999 V2000
   14.4240  -39.2172    0.0000 C   0  0  0  0  0  0  0  0  0  0  0  0
   14.7583  -39.9683    0.0000 C   0  0  0  0  0  0  0  0  0  0  0  0
   15.5760  -40.0542    0.0000 C   0  0  0  0  0  0  0  0  0  0  0  0
   16.0592  -39.3891    0.0000 C   0  0  0  0  0  0  0  0  0  0  0  0
   15.7248  -38.6380    0.0000 C   0  0  0  0  0  0  0  0  0  0  0  0
   14.9072  -38.5521    0.0000 C   0  0  0  0  0  0  0  0  0  0  0  0
   16.8769  -39.4750    0.0000 O   0  0  0  0  0  0  0  0  0  0  0  0
   17.3601  -38.8099    0.0000 C   0  0  0  0  0  0  0  0  0  0  0  0
   17.0257  -38.0588    0.0000 C   0  0  0  0  0  0  0  0  0  0  0  0
   16.2081  -37.9729    0.0000 C   0  0  0  0  0  0  0  0  0  0  0  0
   18.1777  -38.8958    0.0000 O   0  0  0  0  0  0  0  0  0  0  0  0
   17.5089  -37.3937    0.0000 C   0  0  0  0  0  0  0  0  0  0  0  0
   18.3266  -37.4797    0.0000 N   0  0  0  0  0  0  0  0  0  0  0  0
   17.1745  -36.6427    0.0000 C   0  0  0  0  0  0  0  0  0  0  0  0
   18.8098  -36.8145    0.0000 N   0  0  0  0  0  0  0  0  0  0  0  0
   19.6274  -36.9005    0.0000 C   0  0  0  0  0  0  0  0  0  0  0  0
   20.0385  -37.6125    0.0000 N   0  0  0  0  0  0  0  0  0  0  0  0
   20.8427  -37.4415    0.0000 C   0  0  0  0  0  0  0  0  0  0  0  0
   20.9286  -36.6239    0.0000 C   0  0  0  0  0  0  0  0  0  0  0  0
   20.1776  -36.2895    0.0000 S   0  0  0  0  0  0  0  0  0  0  0  0
   21.6406  -36.2128    0.0000 C   0  0  0  0  0  0  0  0  0  0  0  0
   21.4536  -37.9917    0.0000 C   0  0  0  0  0  0  0  0  0  0  0  0
   22.3526  -36.6239    0.0000 N   0  0  0  0  0  0  0  0  0  0  0  0
   23.0646  -36.2128    0.0000 C   0  0  0  0  0  0  0  0  0  0  0  0
   23.0646  -35.3907    0.0000 C   0  0  0  0  0  0  0  0  0  0  0  0
   22.3526  -34.9796    0.0000 C   0  0  3  0  0  0  0  0  0  0  0  0
   21.6406  -35.3907    0.0000 C   0  0  0  0  0  0  0  0  0  0  0  0
   23.7766  -36.6239    0.0000 N   0  0  0  0  0  0  0  0  0  0  0  0
   24.4886  -36.2128    0.0000 C   0  0  0  0  0  0  0  0  0  0  0  0
   24.4886  -35.3907    0.0000 N   0  0  0  0  0  0  0  0  0  0  0  0
   23.7766  -34.9796    0.0000 C   0  0  0  0  0  0  0  0  0  0  0  0
   22.3526  -34.1575    0.0000 C   0  0  0  0  0  0  0  0  0  0  0  0
   23.0646  -33.7464    0.0000 C   0  0  0  0  0  0  0  0  0  0  0  0
   23.0646  -32.9243    0.0000 C   0  0  0  0  0  0  0  0  0  0  0  0
   22.3526  -32.5132    0.0000 C   0  0  0  0  0  0  0  0  0  0  0  0
   21.6406  -32.9243    0.0000 C   0  0  0  0  0  0  0  0  0  0  0  0
   21.6406  -33.7464    0.0000 C   0  0  0  0  0  0  0  0  0  0  0  0
   23.7766  -34.1575    0.0000 O   0  0  0  0  0  0  0  0  0  0  0  0
   25.2705  -36.4669    0.0000 N   0  0  0  0  0  0  0  0  0  0  0  0
   25.7537  -35.8018    0.0000 N   0  0  0  0  0  0  0  0  0  0  0  0
   25.2705  -35.1366    0.0000 C   0  0  0  0  0  0  0  0  0  0  0  0
   25.5245  -34.3547    0.0000 C   0  0  0  0  0  0  0  0  0  0  0  0
   25.5245  -37.2488    0.0000 C   0  0  0  0  0  0  0  0  0  0  0  0
   24.9725  -37.8619    0.0000 C   0  0  0  0  0  0  0  0  0  0  0  0
   25.2274  -38.6465    0.0000 C   0  0  0  0  0  0  0  0  0  0  0  0
   26.0344  -38.8180    0.0000 C   0  0  0  0  0  0  0  0  0  0  0  0
   26.5864  -38.2049    0.0000 C   0  0  0  0  0  0  0  0  0  0  0  0
   26.3315  -37.4203    0.0000 C   0  0  0  0  0  0  0  0  0  0  0  0
   24.9744  -33.7438    0.0000 O   0  0  0  0  0  0  0  0  0  0  0  0
   26.3287  -34.1838    0.0000 O   0  0  0  0  0  0  0  0  0  0  0  0
   26.2893  -39.6027    0.0000 Cl  0  0  0  0  0  0  0  0  0  0  0  0
   27.6851  -34.6245    0.0000 C   0  0  0  0  0  0  0  0  0  0  0  0
   27.1341  -34.0126    0.0000 C   0  0  0  0  0  0  0  0  0  0  0  0
  1  2  2  0  0  0  0
  2  3  1  0  0  0  0
  3  4  2  0  0  0  0
  4  5  1  0  0  0  0
  4  7  1  0  0  0  0
  5  6  2  0  0  0  0
  6  1  1  0  0  0  0
  7  8  1  0  0  0  0
  8  9  1  0  0  0  0
  8 11  2  0  0  0  0
  9 10  2  0  0  0  0
  9 12  1  0  0  0  0
 10  5  1  0  0  0  0
 12 13  2  0  0  0  0
 12 14  1  0  0  0  0
 13 15  1  0  0  0  0
 15 16  1  0  0  0  0
 16 17  2  0  0  0  0
 17 18  1  0  0  0  0
 18 19  2  0  0  0  0
 18 22  1  0  0  0  0
 19 20  1  0  0  0  0
 19 21  1  0  0  0  0
 20 16  1  0  0  0  0
 21 23  1  0  0  0  0
 23 24  1  0  0  0  0
 24 25  2  0  0  0  0
 24 28  1  0  0  0  0
 25 26  1  0  0  0  0
 26 27  1  0  0  0  0
 26 32  1  0  0  0  0
 27 21  2  0  0  0  0
 28 29  2  0  0  0  0
 29 30  1  0  0  0  0
 29 39  1  0  0  0  0
 30 31  1  0  0  0  0
 31 25  1  0  0  0  0
 31 38  2  0  0  0  0
 32 33  2  0  0  0  0
 33 34  1  0  0  0  0
 34 35  2  0  0  0  0
 35 36  1  0  0  0  0
 36 37  2  0  0  0  0
 37 32  1  0  0  0  0
 39 40  1  0  0  0  0
 39 43  1  0  0  0  0
 40 41  2  0  0  0  0
 41 30  1  0  0  0  0
 41 42  1  0  0  0  0
 42 49  2  0  0  0  0
 42 50  1  0  0  0  0
 43 44  2  0  0  0  0
 44 45  1  0  0  0  0
 45 46  2  0  0  0  0
 46 47  1  0  0  0  0
 46 51  1  0  0  0  0
 47 48  2  0  0  0  0
 48 43  1  0  0  0  0
 50 53  1  0  0  0  0
 52 53  1  0  0  0  0
M  END
>  <Name>
C3_17e

$$$$
C3_17f
 OpenBabel11182102372D

 56 64  0  0  0  0  0  0  0  0999 V2000
   14.2795  -47.5619    0.0000 C   0  0  0  0  0  0  0  0  0  0  0  0
   14.6139  -48.3129    0.0000 C   0  0  0  0  0  0  0  0  0  0  0  0
   15.4315  -48.3989    0.0000 C   0  0  0  0  0  0  0  0  0  0  0  0
   15.9147  -47.7338    0.0000 C   0  0  0  0  0  0  0  0  0  0  0  0
   15.5804  -46.9827    0.0000 C   0  0  0  0  0  0  0  0  0  0  0  0
   14.7627  -46.8968    0.0000 C   0  0  0  0  0  0  0  0  0  0  0  0
   16.7324  -47.8197    0.0000 O   0  0  0  0  0  0  0  0  0  0  0  0
   17.2156  -47.1546    0.0000 C   0  0  0  0  0  0  0  0  0  0  0  0
   16.8812  -46.4035    0.0000 C   0  0  0  0  0  0  0  0  0  0  0  0
   16.0636  -46.3176    0.0000 C   0  0  0  0  0  0  0  0  0  0  0  0
   18.0332  -47.2405    0.0000 O   0  0  0  0  0  0  0  0  0  0  0  0
   17.3645  -45.7384    0.0000 C   0  0  0  0  0  0  0  0  0  0  0  0
   18.1821  -45.8243    0.0000 N   0  0  0  0  0  0  0  0  0  0  0  0
   17.0301  -44.9873    0.0000 C   0  0  0  0  0  0  0  0  0  0  0  0
   18.6653  -45.1592    0.0000 N   0  0  0  0  0  0  0  0  0  0  0  0
   19.4830  -45.2451    0.0000 C   0  0  0  0  0  0  0  0  0  0  0  0
   19.8940  -45.9571    0.0000 N   0  0  0  0  0  0  0  0  0  0  0  0
   20.6982  -45.7862    0.0000 C   0  0  0  0  0  0  0  0  0  0  0  0
   20.7841  -44.9686    0.0000 C   0  0  0  0  0  0  0  0  0  0  0  0
   20.0331  -44.6342    0.0000 S   0  0  0  0  0  0  0  0  0  0  0  0
   21.4961  -44.5575    0.0000 C   0  0  0  0  0  0  0  0  0  0  0  0
   21.3092  -46.3363    0.0000 C   0  0  0  0  0  0  0  0  0  0  0  0
   22.2081  -44.9686    0.0000 N   0  0  0  0  0  0  0  0  0  0  0  0
   22.9201  -44.5575    0.0000 C   0  0  0  0  0  0  0  0  0  0  0  0
   22.9201  -43.7354    0.0000 C   0  0  0  0  0  0  0  0  0  0  0  0
   22.2081  -43.3243    0.0000 C   0  0  3  0  0  0  0  0  0  0  0  0
   21.4961  -43.7354    0.0000 C   0  0  0  0  0  0  0  0  0  0  0  0
   23.6321  -44.9686    0.0000 N   0  0  0  0  0  0  0  0  0  0  0  0
   24.3441  -44.5575    0.0000 C   0  0  0  0  0  0  0  0  0  0  0  0
   24.3441  -43.7354    0.0000 N   0  0  0  0  0  0  0  0  0  0  0  0
   23.6321  -43.3243    0.0000 C   0  0  0  0  0  0  0  0  0  0  0  0
   22.2081  -42.5022    0.0000 C   0  0  0  0  0  0  0  0  0  0  0  0
   22.9201  -42.0911    0.0000 C   0  0  0  0  0  0  0  0  0  0  0  0
   22.9201  -41.2690    0.0000 C   0  0  0  0  0  0  0  0  0  0  0  0
   22.2081  -40.8579    0.0000 C   0  0  0  0  0  0  0  0  0  0  0  0
   21.4961  -41.2690    0.0000 C   0  0  0  0  0  0  0  0  0  0  0  0
   21.4961  -42.0911    0.0000 C   0  0  0  0  0  0  0  0  0  0  0  0
   23.6321  -42.5022    0.0000 O   0  0  0  0  0  0  0  0  0  0  0  0
   25.1260  -44.8116    0.0000 N   0  0  0  0  0  0  0  0  0  0  0  0
   25.6092  -44.1464    0.0000 N   0  0  0  0  0  0  0  0  0  0  0  0
   25.1260  -43.4813    0.0000 C   0  0  0  0  0  0  0  0  0  0  0  0
   25.3801  -42.6994    0.0000 C   0  0  0  0  0  0  0  0  0  0  0  0
   25.3801  -45.5935    0.0000 C   0  0  0  0  0  0  0  0  0  0  0  0
   24.8280  -46.2065    0.0000 C   0  0  0  0  0  0  0  0  0  0  0  0
   25.0830  -46.9912    0.0000 C   0  0  0  0  0  0  0  0  0  0  0  0
   25.8899  -47.1627    0.0000 C   0  0  0  0  0  0  0  0  0  0  0  0
   26.4420  -46.5496    0.0000 C   0  0  0  0  0  0  0  0  0  0  0  0
   26.1870  -45.7650    0.0000 C   0  0  0  0  0  0  0  0  0  0  0  0
   24.8299  -42.0884    0.0000 O   0  0  0  0  0  0  0  0  0  0  0  0
   26.1842  -42.5285    0.0000 N   0  0  0  0  0  0  0  0  0  0  0  0
   26.7343  -43.1394    0.0000 C   0  0  0  0  0  0  0  0  0  0  0  0
   26.4799  -43.9225    0.0000 C   0  0  0  0  0  0  0  0  0  0  0  0
   27.0309  -44.5344    0.0000 C   0  0  0  0  0  0  0  0  0  0  0  0
   27.8363  -44.3633    0.0000 C   0  0  0  0  0  0  0  0  0  0  0  0
   28.0907  -43.5802    0.0000 C   0  0  0  0  0  0  0  0  0  0  0  0
   27.5397  -42.9683    0.0000 C   0  0  0  0  0  0  0  0  0  0  0  0
  1  2  2  0  0  0  0
  2  3  1  0  0  0  0
  3  4  2  0  0  0  0
  4  5  1  0  0  0  0
  4  7  1  0  0  0  0
  5  6  2  0  0  0  0
  6  1  1  0  0  0  0
  7  8  1  0  0  0  0
  8  9  1  0  0  0  0
  8 11  2  0  0  0  0
  9 10  2  0  0  0  0
  9 12  1  0  0  0  0
 10  5  1  0  0  0  0
 12 13  2  0  0  0  0
 12 14  1  0  0  0  0
 13 15  1  0  0  0  0
 15 16  1  0  0  0  0
 16 17  2  0  0  0  0
 17 18  1  0  0  0  0
 18 19  2  0  0  0  0
 18 22  1  0  0  0  0
 19 20  1  0  0  0  0
 19 21  1  0  0  0  0
 20 16  1  0  0  0  0
 21 23  1  0  0  0  0
 23 24  1  0  0  0  0
 24 25  2  0  0  0  0
 24 28  1  0  0  0  0
 25 26  1  0  0  0  0
 26 27  1  0  0  0  0
 26 32  1  0  0  0  0
 27 21  2  0  0  0  0
 28 29  2  0  0  0  0
 29 30  1  0  0  0  0
 29 39  1  0  0  0  0
 30 31  1  0  0  0  0
 31 25  1  0  0  0  0
 31 38  2  0  0  0  0
 32 33  2  0  0  0  0
 33 34  1  0  0  0  0
 34 35  2  0  0  0  0
 35 36  1  0  0  0  0
 36 37  2  0  0  0  0
 37 32  1  0  0  0  0
 39 40  1  0  0  0  0
 39 43  1  0  0  0  0
 40 41  2  0  0  0  0
 41 30  1  0  0  0  0
 41 42  1  0  0  0  0
 42 49  2  0  0  0  0
 42 50  1  0  0  0  0
 43 44  2  0  0  0  0
 44 45  1  0  0  0  0
 45 46  2  0  0  0  0
 46 47  1  0  0  0  0
 47 48  2  0  0  0  0
 48 43  1  0  0  0  0
 50 51  1  0  0  0  0
 51 52  2  0  0  0  0
 51 56  1  0  0  0  0
 52 53  1  0  0  0  0
 53 54  2  0  0  0  0
 54 55  1  0  0  0  0
 55 56  2  0  0  0  0
M  END
>  <Name>
C3_17f

$$$$
C3_17g
 OpenBabel11182102372D

 59 67  0  0  0  0  0  0  0  0999 V2000
   30.0093   -7.0595    0.0000 C   0  0  0  0  0  0  0  0  0  0  0  0
   30.3437   -7.8105    0.0000 C   0  0  0  0  0  0  0  0  0  0  0  0
   31.1613   -7.8964    0.0000 C   0  0  0  0  0  0  0  0  0  0  0  0
   31.6446   -7.2313    0.0000 C   0  0  0  0  0  0  0  0  0  0  0  0
   31.3102   -6.4803    0.0000 C   0  0  0  0  0  0  0  0  0  0  0  0
   30.4925   -6.3943    0.0000 C   0  0  0  0  0  0  0  0  0  0  0  0
   32.4622   -7.3173    0.0000 O   0  0  0  0  0  0  0  0  0  0  0  0
   32.9454   -6.6521    0.0000 C   0  0  0  0  0  0  0  0  0  0  0  0
   32.6110   -5.9011    0.0000 C   0  0  0  0  0  0  0  0  0  0  0  0
   31.7934   -5.8151    0.0000 C   0  0  0  0  0  0  0  0  0  0  0  0
   33.7631   -6.7381    0.0000 O   0  0  0  0  0  0  0  0  0  0  0  0
   33.0943   -5.2360    0.0000 C   0  0  0  0  0  0  0  0  0  0  0  0
   33.9119   -5.3219    0.0000 N   0  0  0  0  0  0  0  0  0  0  0  0
   32.7599   -4.4849    0.0000 C   0  0  0  0  0  0  0  0  0  0  0  0
   34.3952   -4.6568    0.0000 N   0  0  0  0  0  0  0  0  0  0  0  0
   35.2128   -4.7427    0.0000 C   0  0  0  0  0  0  0  0  0  0  0  0
   35.6239   -5.4547    0.0000 N   0  0  0  0  0  0  0  0  0  0  0  0
   36.4280   -5.2838    0.0000 C   0  0  0  0  0  0  0  0  0  0  0  0
   36.5140   -4.4661    0.0000 C   0  0  0  0  0  0  0  0  0  0  0  0
   35.7629   -4.1317    0.0000 S   0  0  0  0  0  0  0  0  0  0  0  0
   37.2260   -4.0551    0.0000 C   0  0  0  0  0  0  0  0  0  0  0  0
   37.0390   -5.8339    0.0000 C   0  0  0  0  0  0  0  0  0  0  0  0
   37.9379   -4.4661    0.0000 N   0  0  0  0  0  0  0  0  0  0  0  0
   38.6499   -4.0551    0.0000 C   0  0  0  0  0  0  0  0  0  0  0  0
   38.6499   -3.2329    0.0000 C   0  0  0  0  0  0  0  0  0  0  0  0
   37.9379   -2.8219    0.0000 C   0  0  3  0  0  0  0  0  0  0  0  0
   37.2260   -3.2329    0.0000 C   0  0  0  0  0  0  0  0  0  0  0  0
   39.3619   -4.4661    0.0000 N   0  0  0  0  0  0  0  0  0  0  0  0
   40.0739   -4.0551    0.0000 C   0  0  0  0  0  0  0  0  0  0  0  0
   40.0739   -3.2329    0.0000 N   0  0  0  0  0  0  0  0  0  0  0  0
   39.3619   -2.8219    0.0000 C   0  0  0  0  0  0  0  0  0  0  0  0
   37.9379   -1.9997    0.0000 C   0  0  0  0  0  0  0  0  0  0  0  0
   38.6499   -1.5887    0.0000 C   0  0  0  0  0  0  0  0  0  0  0  0
   38.6499   -0.7665    0.0000 C   0  0  0  0  0  0  0  0  0  0  0  0
   37.9379   -0.3555    0.0000 C   0  0  0  0  0  0  0  0  0  0  0  0
   37.2260   -0.7665    0.0000 C   0  0  0  0  0  0  0  0  0  0  0  0
   37.2260   -1.5887    0.0000 C   0  0  0  0  0  0  0  0  0  0  0  0
   39.3619   -1.9997    0.0000 O   0  0  0  0  0  0  0  0  0  0  0  0
   40.8558   -4.3091    0.0000 N   0  0  0  0  0  0  0  0  0  0  0  0
   41.3391   -3.6440    0.0000 N   0  0  0  0  0  0  0  0  0  0  0  0
   40.8558   -2.9789    0.0000 C   0  0  0  0  0  0  0  0  0  0  0  0
   41.1099   -2.1970    0.0000 C   0  0  0  0  0  0  0  0  0  0  0  0
   41.1099   -5.0910    0.0000 C   0  0  0  0  0  0  0  0  0  0  0  0
   40.5578   -5.7041    0.0000 C   0  0  0  0  0  0  0  0  0  0  0  0
   40.8128   -6.4887    0.0000 C   0  0  0  0  0  0  0  0  0  0  0  0
   41.6197   -6.6603    0.0000 C   0  0  0  0  0  0  0  0  0  0  0  0
   42.1718   -6.0472    0.0000 C   0  0  0  0  0  0  0  0  0  0  0  0
   41.9168   -5.2626    0.0000 C   0  0  0  0  0  0  0  0  0  0  0  0
   40.5598   -1.5860    0.0000 O   0  0  0  0  0  0  0  0  0  0  0  0
   41.9140   -2.0261    0.0000 N   0  0  0  0  0  0  0  0  0  0  0  0
   41.8747   -7.4449    0.0000 N   0  3  0  0  0  0  0  0  0  0  0  0
   42.4642   -2.6370    0.0000 C   0  0  0  0  0  0  0  0  0  0  0  0
   41.3237   -8.0568    0.0000 O   0  0  0  0  0  0  0  0  0  0  0  0
   42.6801   -7.6161    0.0000 O   0  5  0  0  0  0  0  0  0  0  0  0
   42.2097   -3.4201    0.0000 C   0  0  0  0  0  0  0  0  0  0  0  0
   42.7607   -4.0320    0.0000 C   0  0  0  0  0  0  0  0  0  0  0  0
   43.5661   -3.8608    0.0000 C   0  0  0  0  0  0  0  0  0  0  0  0
   43.8205   -3.0777    0.0000 C   0  0  0  0  0  0  0  0  0  0  0  0
   43.2696   -2.4658    0.0000 C   0  0  0  0  0  0  0  0  0  0  0  0
  1  2  2  0  0  0  0
  2  3  1  0  0  0  0
  3  4  2  0  0  0  0
  4  5  1  0  0  0  0
  4  7  1  0  0  0  0
  5  6  2  0  0  0  0
  6  1  1  0  0  0  0
  7  8  1  0  0  0  0
  8  9  1  0  0  0  0
  8 11  2  0  0  0  0
  9 10  2  0  0  0  0
  9 12  1  0  0  0  0
 10  5  1  0  0  0  0
 12 13  2  0  0  0  0
 12 14  1  0  0  0  0
 13 15  1  0  0  0  0
 15 16  1  0  0  0  0
 16 17  2  0  0  0  0
 17 18  1  0  0  0  0
 18 19  2  0  0  0  0
 18 22  1  0  0  0  0
 19 20  1  0  0  0  0
 19 21  1  0  0  0  0
 20 16  1  0  0  0  0
 21 23  1  0  0  0  0
 23 24  1  0  0  0  0
 24 25  2  0  0  0  0
 24 28  1  0  0  0  0
 25 26  1  0  0  0  0
 26 27  1  0  0  0  0
 26 32  1  0  0  0  0
 27 21  2  0  0  0  0
 28 29  2  0  0  0  0
 29 30  1  0  0  0  0
 29 39  1  0  0  0  0
 30 31  1  0  0  0  0
 31 25  1  0  0  0  0
 31 38  2  0  0  0  0
 32 33  2  0  0  0  0
 33 34  1  0  0  0  0
 34 35  2  0  0  0  0
 35 36  1  0  0  0  0
 36 37  2  0  0  0  0
 37 32  1  0  0  0  0
 39 40  1  0  0  0  0
 39 43  1  0  0  0  0
 40 41  2  0  0  0  0
 41 30  1  0  0  0  0
 41 42  1  0  0  0  0
 42 49  2  0  0  0  0
 42 50  1  0  0  0  0
 43 44  2  0  0  0  0
 44 45  1  0  0  0  0
 45 46  2  0  0  0  0
 46 47  1  0  0  0  0
 46 51  1  0  0  0  0
 47 48  2  0  0  0  0
 48 43  1  0  0  0  0
 50 52  1  0  0  0  0
 51 53  2  0  0  0  0
 51 54  1  0  0  0  0
 52 55  2  0  0  0  0
 52 59  1  0  0  0  0
 55 56  1  0  0  0  0
 56 57  2  0  0  0  0
 57 58  1  0  0  0  0
 58 59  2  0  0  0  0
M  CHG  2  51   1  54  -1
M  END
>  <Name>
C3_17g

$$$$
C3_18a
 OpenBabel11182102372D

 46 52  0  0  0  0  0  0  0  0999 V2000
   30.0402  -14.9262    0.0000 C   0  0  0  0  0  0  0  0  0  0  0  0
   30.3746  -15.6773    0.0000 C   0  0  0  0  0  0  0  0  0  0  0  0
   31.1922  -15.7632    0.0000 C   0  0  0  0  0  0  0  0  0  0  0  0
   31.6754  -15.0981    0.0000 C   0  0  0  0  0  0  0  0  0  0  0  0
   31.3410  -14.3471    0.0000 C   0  0  0  0  0  0  0  0  0  0  0  0
   30.5234  -14.2611    0.0000 C   0  0  0  0  0  0  0  0  0  0  0  0
   32.4931  -15.1841    0.0000 O   0  0  0  0  0  0  0  0  0  0  0  0
   32.9763  -14.5189    0.0000 C   0  0  0  0  0  0  0  0  0  0  0  0
   32.6419  -13.7679    0.0000 C   0  0  0  0  0  0  0  0  0  0  0  0
   31.8243  -13.6819    0.0000 C   0  0  0  0  0  0  0  0  0  0  0  0
   33.7939  -14.6049    0.0000 O   0  0  0  0  0  0  0  0  0  0  0  0
   33.1251  -13.1028    0.0000 C   0  0  0  0  0  0  0  0  0  0  0  0
   33.9428  -13.1887    0.0000 N   0  0  0  0  0  0  0  0  0  0  0  0
   32.7908  -12.3517    0.0000 C   0  0  0  0  0  0  0  0  0  0  0  0
   34.4260  -12.5236    0.0000 N   0  0  0  0  0  0  0  0  0  0  0  0
   35.2436  -12.6095    0.0000 C   0  0  0  0  0  0  0  0  0  0  0  0
   35.6547  -13.3215    0.0000 N   0  0  0  0  0  0  0  0  0  0  0  0
   36.4589  -13.1506    0.0000 C   0  0  0  0  0  0  0  0  0  0  0  0
   36.5448  -12.3329    0.0000 C   0  0  0  0  0  0  0  0  0  0  0  0
   35.7938  -11.9985    0.0000 S   0  0  0  0  0  0  0  0  0  0  0  0
   37.2568  -11.9219    0.0000 C   0  0  0  0  0  0  0  0  0  0  0  0
   37.0699  -13.7007    0.0000 C   0  0  0  0  0  0  0  0  0  0  0  0
   37.9688  -12.3329    0.0000 N   0  0  0  0  0  0  0  0  0  0  0  0
   38.6808  -11.9219    0.0000 C   0  0  0  0  0  0  0  0  0  0  0  0
   38.6808  -11.0997    0.0000 N   0  0  0  0  0  0  0  0  0  0  0  0
   37.9688  -10.6887    0.0000 C   0  0  3  0  0  0  0  0  0  0  0  0
   37.2568  -11.0997    0.0000 C   0  0  0  0  0  0  0  0  0  0  0  0
   37.9688   -9.8665    0.0000 C   0  0  0  0  0  0  0  0  0  0  0  0
   38.6808   -9.4555    0.0000 C   0  0  0  0  0  0  0  0  0  0  0  0
   38.6808   -8.6333    0.0000 C   0  0  0  0  0  0  0  0  0  0  0  0
   37.9688   -8.2223    0.0000 C   0  0  0  0  0  0  0  0  0  0  0  0
   37.2568   -8.6333    0.0000 C   0  0  0  0  0  0  0  0  0  0  0  0
   37.2568   -9.4555    0.0000 C   0  0  0  0  0  0  0  0  0  0  0  0
   39.4627  -12.1759    0.0000 N   0  0  0  0  0  0  0  0  0  0  0  0
   39.9459  -11.5108    0.0000 N   0  0  0  0  0  0  0  0  0  0  0  0
   39.4627  -10.8457    0.0000 C   0  0  0  0  0  0  0  0  0  0  0  0
   39.7167  -10.0638    0.0000 C   0  0  0  0  0  0  0  0  0  0  0  0
   39.7167  -12.9578    0.0000 C   0  0  0  0  0  0  0  0  0  0  0  0
   39.1647  -13.5709    0.0000 C   0  0  0  0  0  0  0  0  0  0  0  0
   39.4197  -14.3555    0.0000 C   0  0  0  0  0  0  0  0  0  0  0  0
   40.2266  -14.5271    0.0000 C   0  0  0  0  0  0  0  0  0  0  0  0
   40.7787  -13.9140    0.0000 C   0  0  0  0  0  0  0  0  0  0  0  0
   40.5237  -13.1293    0.0000 C   0  0  0  0  0  0  0  0  0  0  0  0
   40.5209   -9.8928    0.0000 C   0  0  0  0  0  0  0  0  0  0  0  0
   39.1666   -9.4528    0.0000 O   0  0  0  0  0  0  0  0  0  0  0  0
   40.4816  -15.3117    0.0000 Cl  0  0  0  0  0  0  0  0  0  0  0  0
  1  2  2  0  0  0  0
  2  3  1  0  0  0  0
  3  4  2  0  0  0  0
  4  5  1  0  0  0  0
  4  7  1  0  0  0  0
  5  6  2  0  0  0  0
  6  1  1  0  0  0  0
  7  8  1  0  0  0  0
  8  9  1  0  0  0  0
  8 11  2  0  0  0  0
  9 10  2  0  0  0  0
  9 12  1  0  0  0  0
 10  5  1  0  0  0  0
 12 13  2  0  0  0  0
 12 14  1  0  0  0  0
 13 15  1  0  0  0  0
 15 16  1  0  0  0  0
 16 17  2  0  0  0  0
 17 18  1  0  0  0  0
 18 19  2  0  0  0  0
 18 22  1  0  0  0  0
 19 20  1  0  0  0  0
 19 21  1  0  0  0  0
 20 16  1  0  0  0  0
 21 23  1  0  0  0  0
 23 24  2  0  0  0  0
 24 25  1  0  0  0  0
 24 34  1  0  0  0  0
 25 26  1  0  0  0  0
 26 27  1  0  0  0  0
 26 28  1  0  0  0  0
 27 21  2  0  0  0  0
 28 29  2  0  0  0  0
 29 30  1  0  0  0  0
 30 31  2  0  0  0  0
 31 32  1  0  0  0  0
 32 33  2  0  0  0  0
 33 28  1  0  0  0  0
 34 35  1  0  0  0  0
 34 38  1  0  0  0  0
 35 36  2  0  0  0  0
 36 25  1  0  0  0  0
 36 37  1  0  0  0  0
 37 44  1  0  0  0  0
 37 45  2  0  0  0  0
 38 39  2  0  0  0  0
 39 40  1  0  0  0  0
 40 41  2  0  0  0  0
 41 42  1  0  0  0  0
 41 46  1  0  0  0  0
 42 43  2  0  0  0  0
 43 38  1  0  0  0  0
M  END
>  <Name>
C3_18a

$$$$
C3_18b
 OpenBabel11182102372D

 46 52  0  0  0  0  0  0  0  0999 V2000
   30.1209  -23.1168    0.0000 C   0  0  0  0  0  0  0  0  0  0  0  0
   30.4553  -23.8679    0.0000 C   0  0  0  0  0  0  0  0  0  0  0  0
   31.2730  -23.9538    0.0000 C   0  0  0  0  0  0  0  0  0  0  0  0
   31.7562  -23.2887    0.0000 C   0  0  0  0  0  0  0  0  0  0  0  0
   31.4218  -22.5376    0.0000 C   0  0  0  0  0  0  0  0  0  0  0  0
   30.6042  -22.4517    0.0000 C   0  0  0  0  0  0  0  0  0  0  0  0
   32.5738  -23.3746    0.0000 O   0  0  0  0  0  0  0  0  0  0  0  0
   33.0571  -22.7095    0.0000 C   0  0  0  0  0  0  0  0  0  0  0  0
   32.7227  -21.9585    0.0000 C   0  0  0  0  0  0  0  0  0  0  0  0
   31.9050  -21.8725    0.0000 C   0  0  0  0  0  0  0  0  0  0  0  0
   33.8747  -22.7955    0.0000 O   0  0  0  0  0  0  0  0  0  0  0  0
   33.2059  -21.2933    0.0000 C   0  0  0  0  0  0  0  0  0  0  0  0
   34.0236  -21.3793    0.0000 N   0  0  0  0  0  0  0  0  0  0  0  0
   32.8715  -20.5423    0.0000 C   0  0  0  0  0  0  0  0  0  0  0  0
   34.5068  -20.7141    0.0000 N   0  0  0  0  0  0  0  0  0  0  0  0
   35.3244  -20.8001    0.0000 C   0  0  0  0  0  0  0  0  0  0  0  0
   35.7355  -21.5121    0.0000 N   0  0  0  0  0  0  0  0  0  0  0  0
   36.5397  -21.3411    0.0000 C   0  0  0  0  0  0  0  0  0  0  0  0
   36.6256  -20.5235    0.0000 C   0  0  0  0  0  0  0  0  0  0  0  0
   35.8745  -20.1891    0.0000 S   0  0  0  0  0  0  0  0  0  0  0  0
   37.3376  -20.1124    0.0000 C   0  0  0  0  0  0  0  0  0  0  0  0
   37.1506  -21.8913    0.0000 C   0  0  0  0  0  0  0  0  0  0  0  0
   38.0496  -20.5235    0.0000 N   0  0  0  0  0  0  0  0  0  0  0  0
   38.7616  -20.1124    0.0000 C   0  0  0  0  0  0  0  0  0  0  0  0
   38.7616  -19.2903    0.0000 N   0  0  0  0  0  0  0  0  0  0  0  0
   38.0496  -18.8792    0.0000 C   0  0  3  0  0  0  0  0  0  0  0  0
   37.3376  -19.2903    0.0000 C   0  0  0  0  0  0  0  0  0  0  0  0
   38.0496  -18.0571    0.0000 C   0  0  0  0  0  0  0  0  0  0  0  0
   38.7616  -17.6460    0.0000 C   0  0  0  0  0  0  0  0  0  0  0  0
   38.7616  -16.8239    0.0000 C   0  0  0  0  0  0  0  0  0  0  0  0
   38.0496  -16.4128    0.0000 C   0  0  0  0  0  0  0  0  0  0  0  0
   37.3376  -16.8239    0.0000 C   0  0  0  0  0  0  0  0  0  0  0  0
   37.3376  -17.6460    0.0000 C   0  0  0  0  0  0  0  0  0  0  0  0
   39.5435  -20.3665    0.0000 N   0  0  0  0  0  0  0  0  0  0  0  0
   40.0267  -19.7014    0.0000 N   0  0  0  0  0  0  0  0  0  0  0  0
   39.5435  -19.0363    0.0000 C   0  0  0  0  0  0  0  0  0  0  0  0
   39.7975  -18.2544    0.0000 C   0  0  0  0  0  0  0  0  0  0  0  0
   39.7975  -21.1484    0.0000 C   0  0  0  0  0  0  0  0  0  0  0  0
   39.2455  -21.7615    0.0000 C   0  0  0  0  0  0  0  0  0  0  0  0
   39.5004  -22.5461    0.0000 C   0  0  0  0  0  0  0  0  0  0  0  0
   40.3074  -22.7176    0.0000 C   0  0  0  0  0  0  0  0  0  0  0  0
   40.8594  -22.1045    0.0000 C   0  0  0  0  0  0  0  0  0  0  0  0
   40.6045  -21.3199    0.0000 C   0  0  0  0  0  0  0  0  0  0  0  0
   40.6017  -18.0834    0.0000 C   0  0  0  0  0  0  0  0  0  0  0  0
   39.2474  -17.6434    0.0000 O   0  0  0  0  0  0  0  0  0  0  0  0
   40.5623  -23.5023    0.0000 C   0  0  0  0  0  0  0  0  0  0  0  0
  1  2  2  0  0  0  0
  2  3  1  0  0  0  0
  3  4  2  0  0  0  0
  4  5  1  0  0  0  0
  4  7  1  0  0  0  0
  5  6  2  0  0  0  0
  6  1  1  0  0  0  0
  7  8  1  0  0  0  0
  8  9  1  0  0  0  0
  8 11  2  0  0  0  0
  9 10  2  0  0  0  0
  9 12  1  0  0  0  0
 10  5  1  0  0  0  0
 12 13  2  0  0  0  0
 12 14  1  0  0  0  0
 13 15  1  0  0  0  0
 15 16  1  0  0  0  0
 16 17  2  0  0  0  0
 17 18  1  0  0  0  0
 18 19  2  0  0  0  0
 18 22  1  0  0  0  0
 19 20  1  0  0  0  0
 19 21  1  0  0  0  0
 20 16  1  0  0  0  0
 21 23  1  0  0  0  0
 23 24  2  0  0  0  0
 24 25  1  0  0  0  0
 24 34  1  0  0  0  0
 25 26  1  0  0  0  0
 26 27  1  0  0  0  0
 26 28  1  0  0  0  0
 27 21  2  0  0  0  0
 28 29  2  0  0  0  0
 29 30  1  0  0  0  0
 30 31  2  0  0  0  0
 31 32  1  0  0  0  0
 32 33  2  0  0  0  0
 33 28  1  0  0  0  0
 34 35  1  0  0  0  0
 34 38  1  0  0  0  0
 35 36  2  0  0  0  0
 36 25  1  0  0  0  0
 36 37  1  0  0  0  0
 37 44  1  0  0  0  0
 37 45  2  0  0  0  0
 38 39  2  0  0  0  0
 39 40  1  0  0  0  0
 40 41  2  0  0  0  0
 41 42  1  0  0  0  0
 41 46  1  0  0  0  0
 42 43  2  0  0  0  0
 43 38  1  0  0  0  0
M  END
>  <Name>
C3_18b

$$$$
C3_18c
 OpenBabel11182102372D

 48 54  0  0  0  0  0  0  0  0999 V2000
   29.9549  -31.5860    0.0000 C   0  0  0  0  0  0  0  0  0  0  0  0
   30.2893  -32.3371    0.0000 C   0  0  0  0  0  0  0  0  0  0  0  0
   31.1069  -32.4230    0.0000 C   0  0  0  0  0  0  0  0  0  0  0  0
   31.5901  -31.7579    0.0000 C   0  0  0  0  0  0  0  0  0  0  0  0
   31.2557  -31.0069    0.0000 C   0  0  0  0  0  0  0  0  0  0  0  0
   30.4381  -30.9209    0.0000 C   0  0  0  0  0  0  0  0  0  0  0  0
   32.4078  -31.8439    0.0000 O   0  0  0  0  0  0  0  0  0  0  0  0
   32.8910  -31.1787    0.0000 C   0  0  0  0  0  0  0  0  0  0  0  0
   32.5566  -30.4277    0.0000 C   0  0  0  0  0  0  0  0  0  0  0  0
   31.7390  -30.3417    0.0000 C   0  0  0  0  0  0  0  0  0  0  0  0
   33.7086  -31.2647    0.0000 O   0  0  0  0  0  0  0  0  0  0  0  0
   33.0399  -29.7625    0.0000 C   0  0  0  0  0  0  0  0  0  0  0  0
   33.8575  -29.8485    0.0000 N   0  0  0  0  0  0  0  0  0  0  0  0
   32.7055  -29.0115    0.0000 C   0  0  0  0  0  0  0  0  0  0  0  0
   34.3407  -29.1834    0.0000 N   0  0  0  0  0  0  0  0  0  0  0  0
   35.1584  -29.2693    0.0000 C   0  0  0  0  0  0  0  0  0  0  0  0
   35.5694  -29.9813    0.0000 N   0  0  0  0  0  0  0  0  0  0  0  0
   36.3736  -29.8104    0.0000 C   0  0  0  0  0  0  0  0  0  0  0  0
   36.4595  -28.9927    0.0000 C   0  0  0  0  0  0  0  0  0  0  0  0
   35.7085  -28.6583    0.0000 S   0  0  0  0  0  0  0  0  0  0  0  0
   37.1715  -28.5817    0.0000 C   0  0  0  0  0  0  0  0  0  0  0  0
   36.9846  -30.3605    0.0000 C   0  0  0  0  0  0  0  0  0  0  0  0
   37.8835  -28.9927    0.0000 N   0  0  0  0  0  0  0  0  0  0  0  0
   38.5955  -28.5817    0.0000 C   0  0  0  0  0  0  0  0  0  0  0  0
   38.5955  -27.7595    0.0000 N   0  0  0  0  0  0  0  0  0  0  0  0
   37.8835  -27.3484    0.0000 C   0  0  3  0  0  0  0  0  0  0  0  0
   37.1715  -27.7595    0.0000 C   0  0  0  0  0  0  0  0  0  0  0  0
   37.8835  -26.5263    0.0000 C   0  0  0  0  0  0  0  0  0  0  0  0
   38.5955  -26.1152    0.0000 C   0  0  0  0  0  0  0  0  0  0  0  0
   38.5955  -25.2931    0.0000 C   0  0  0  0  0  0  0  0  0  0  0  0
   37.8835  -24.8820    0.0000 C   0  0  0  0  0  0  0  0  0  0  0  0
   37.1715  -25.2931    0.0000 C   0  0  0  0  0  0  0  0  0  0  0  0
   37.1715  -26.1152    0.0000 C   0  0  0  0  0  0  0  0  0  0  0  0
   39.3774  -28.8357    0.0000 N   0  0  0  0  0  0  0  0  0  0  0  0
   39.8607  -28.1706    0.0000 N   0  0  0  0  0  0  0  0  0  0  0  0
   39.3774  -27.5055    0.0000 C   0  0  0  0  0  0  0  0  0  0  0  0
   39.6315  -26.7236    0.0000 C   0  0  0  0  0  0  0  0  0  0  0  0
   39.6315  -29.6176    0.0000 C   0  0  0  0  0  0  0  0  0  0  0  0
   39.0794  -30.2307    0.0000 C   0  0  0  0  0  0  0  0  0  0  0  0
   39.3344  -31.0153    0.0000 C   0  0  0  0  0  0  0  0  0  0  0  0
   40.1413  -31.1869    0.0000 C   0  0  0  0  0  0  0  0  0  0  0  0
   40.6934  -30.5738    0.0000 C   0  0  0  0  0  0  0  0  0  0  0  0
   40.4384  -29.7891    0.0000 C   0  0  0  0  0  0  0  0  0  0  0  0
   40.4356  -26.5526    0.0000 O   0  0  0  0  0  0  0  0  0  0  0  0
   39.0813  -26.1126    0.0000 O   0  0  0  0  0  0  0  0  0  0  0  0
   40.3963  -31.9715    0.0000 Cl  0  0  0  0  0  0  0  0  0  0  0  0
   41.7920  -26.9933    0.0000 C   0  0  0  0  0  0  0  0  0  0  0  0
   41.2410  -26.3814    0.0000 C   0  0  0  0  0  0  0  0  0  0  0  0
  1  2  2  0  0  0  0
  2  3  1  0  0  0  0
  3  4  2  0  0  0  0
  4  5  1  0  0  0  0
  4  7  1  0  0  0  0
  5  6  2  0  0  0  0
  6  1  1  0  0  0  0
  7  8  1  0  0  0  0
  8  9  1  0  0  0  0
  8 11  2  0  0  0  0
  9 10  2  0  0  0  0
  9 12  1  0  0  0  0
 10  5  1  0  0  0  0
 12 13  2  0  0  0  0
 12 14  1  0  0  0  0
 13 15  1  0  0  0  0
 15 16  1  0  0  0  0
 16 17  2  0  0  0  0
 17 18  1  0  0  0  0
 18 19  2  0  0  0  0
 18 22  1  0  0  0  0
 19 20  1  0  0  0  0
 19 21  1  0  0  0  0
 20 16  1  0  0  0  0
 21 23  1  0  0  0  0
 23 24  2  0  0  0  0
 24 25  1  0  0  0  0
 24 34  1  0  0  0  0
 25 26  1  0  0  0  0
 26 27  1  0  0  0  0
 26 28  1  0  0  0  0
 27 21  2  0  0  0  0
 28 29  2  0  0  0  0
 29 30  1  0  0  0  0
 30 31  2  0  0  0  0
 31 32  1  0  0  0  0
 32 33  2  0  0  0  0
 33 28  1  0  0  0  0
 34 35  1  0  0  0  0
 34 38  1  0  0  0  0
 35 36  2  0  0  0  0
 36 25  1  0  0  0  0
 36 37  1  0  0  0  0
 37 44  1  0  0  0  0
 37 45  2  0  0  0  0
 38 39  2  0  0  0  0
 39 40  1  0  0  0  0
 40 41  2  0  0  0  0
 41 42  1  0  0  0  0
 41 46  1  0  0  0  0
 42 43  2  0  0  0  0
 43 38  1  0  0  0  0
 44 48  1  0  0  0  0
 47 48  1  0  0  0  0
M  END
>  <Name>
C3_18c

$$$$
C3_18d
 OpenBabel11182102372D

 48 54  0  0  0  0  0  0  0  0999 V2000
   29.5812  -40.5534    0.0000 C   0  0  0  0  0  0  0  0  0  0  0  0
   29.9156  -41.3045    0.0000 C   0  0  0  0  0  0  0  0  0  0  0  0
   30.7333  -41.3904    0.0000 C   0  0  0  0  0  0  0  0  0  0  0  0
   31.2165  -40.7253    0.0000 C   0  0  0  0  0  0  0  0  0  0  0  0
   30.8821  -39.9743    0.0000 C   0  0  0  0  0  0  0  0  0  0  0  0
   30.0645  -39.8883    0.0000 C   0  0  0  0  0  0  0  0  0  0  0  0
   32.0341  -40.8113    0.0000 O   0  0  0  0  0  0  0  0  0  0  0  0
   32.5174  -40.1461    0.0000 C   0  0  0  0  0  0  0  0  0  0  0  0
   32.1830  -39.3951    0.0000 C   0  0  0  0  0  0  0  0  0  0  0  0
   31.3653  -39.3091    0.0000 C   0  0  0  0  0  0  0  0  0  0  0  0
   33.3350  -40.2321    0.0000 O   0  0  0  0  0  0  0  0  0  0  0  0
   32.6662  -38.7299    0.0000 C   0  0  0  0  0  0  0  0  0  0  0  0
   33.4838  -38.8159    0.0000 N   0  0  0  0  0  0  0  0  0  0  0  0
   32.3318  -37.9789    0.0000 C   0  0  0  0  0  0  0  0  0  0  0  0
   33.9671  -38.1508    0.0000 N   0  0  0  0  0  0  0  0  0  0  0  0
   34.7847  -38.2367    0.0000 C   0  0  0  0  0  0  0  0  0  0  0  0
   35.1958  -38.9487    0.0000 N   0  0  0  0  0  0  0  0  0  0  0  0
   36.0000  -38.7778    0.0000 C   0  0  0  0  0  0  0  0  0  0  0  0
   36.0859  -37.9601    0.0000 C   0  0  0  0  0  0  0  0  0  0  0  0
   35.3348  -37.6257    0.0000 S   0  0  0  0  0  0  0  0  0  0  0  0
   36.7979  -37.5491    0.0000 C   0  0  0  0  0  0  0  0  0  0  0  0
   36.6109  -39.3279    0.0000 C   0  0  0  0  0  0  0  0  0  0  0  0
   37.5099  -37.9601    0.0000 N   0  0  0  0  0  0  0  0  0  0  0  0
   38.2219  -37.5491    0.0000 C   0  0  0  0  0  0  0  0  0  0  0  0
   38.2219  -36.7269    0.0000 N   0  0  0  0  0  0  0  0  0  0  0  0
   37.5099  -36.3159    0.0000 C   0  0  3  0  0  0  0  0  0  0  0  0
   36.7979  -36.7269    0.0000 C   0  0  0  0  0  0  0  0  0  0  0  0
   37.5099  -35.4937    0.0000 C   0  0  0  0  0  0  0  0  0  0  0  0
   38.2219  -35.0826    0.0000 C   0  0  0  0  0  0  0  0  0  0  0  0
   38.2219  -34.2605    0.0000 C   0  0  0  0  0  0  0  0  0  0  0  0
   37.5099  -33.8494    0.0000 C   0  0  0  0  0  0  0  0  0  0  0  0
   36.7979  -34.2605    0.0000 C   0  0  0  0  0  0  0  0  0  0  0  0
   36.7979  -35.0826    0.0000 C   0  0  0  0  0  0  0  0  0  0  0  0
   39.0038  -37.8031    0.0000 N   0  0  0  0  0  0  0  0  0  0  0  0
   39.4870  -37.1380    0.0000 N   0  0  0  0  0  0  0  0  0  0  0  0
   39.0038  -36.4729    0.0000 C   0  0  0  0  0  0  0  0  0  0  0  0
   39.2578  -35.6910    0.0000 C   0  0  0  0  0  0  0  0  0  0  0  0
   39.2578  -38.5850    0.0000 C   0  0  0  0  0  0  0  0  0  0  0  0
   38.7058  -39.1981    0.0000 C   0  0  0  0  0  0  0  0  0  0  0  0
   38.9607  -39.9827    0.0000 C   0  0  0  0  0  0  0  0  0  0  0  0
   39.7677  -40.1543    0.0000 C   0  0  0  0  0  0  0  0  0  0  0  0
   40.3197  -39.5412    0.0000 C   0  0  0  0  0  0  0  0  0  0  0  0
   40.0648  -38.7565    0.0000 C   0  0  0  0  0  0  0  0  0  0  0  0
   40.0620  -35.5200    0.0000 O   0  0  0  0  0  0  0  0  0  0  0  0
   38.7077  -35.0800    0.0000 O   0  0  0  0  0  0  0  0  0  0  0  0
   40.0226  -40.9389    0.0000 C   0  0  0  0  0  0  0  0  0  0  0  0
   41.4184  -35.9607    0.0000 C   0  0  0  0  0  0  0  0  0  0  0  0
   40.8674  -35.3488    0.0000 C   0  0  0  0  0  0  0  0  0  0  0  0
  1  2  2  0  0  0  0
  2  3  1  0  0  0  0
  3  4  2  0  0  0  0
  4  5  1  0  0  0  0
  4  7  1  0  0  0  0
  5  6  2  0  0  0  0
  6  1  1  0  0  0  0
  7  8  1  0  0  0  0
  8  9  1  0  0  0  0
  8 11  2  0  0  0  0
  9 10  2  0  0  0  0
  9 12  1  0  0  0  0
 10  5  1  0  0  0  0
 12 13  2  0  0  0  0
 12 14  1  0  0  0  0
 13 15  1  0  0  0  0
 15 16  1  0  0  0  0
 16 17  2  0  0  0  0
 17 18  1  0  0  0  0
 18 19  2  0  0  0  0
 18 22  1  0  0  0  0
 19 20  1  0  0  0  0
 19 21  1  0  0  0  0
 20 16  1  0  0  0  0
 21 23  1  0  0  0  0
 23 24  2  0  0  0  0
 24 25  1  0  0  0  0
 24 34  1  0  0  0  0
 25 26  1  0  0  0  0
 26 27  1  0  0  0  0
 26 28  1  0  0  0  0
 27 21  2  0  0  0  0
 28 29  2  0  0  0  0
 29 30  1  0  0  0  0
 30 31  2  0  0  0  0
 31 32  1  0  0  0  0
 32 33  2  0  0  0  0
 33 28  1  0  0  0  0
 34 35  1  0  0  0  0
 34 38  1  0  0  0  0
 35 36  2  0  0  0  0
 36 25  1  0  0  0  0
 36 37  1  0  0  0  0
 37 44  1  0  0  0  0
 37 45  2  0  0  0  0
 38 39  2  0  0  0  0
 39 40  1  0  0  0  0
 40 41  2  0  0  0  0
 41 42  1  0  0  0  0
 41 46  1  0  0  0  0
 42 43  2  0  0  0  0
 43 38  1  0  0  0  0
 44 48  1  0  0  0  0
 47 48  1  0  0  0  0
M  END
>  <Name>
C3_18d

$$$$
C3_18e
 OpenBabel11182102372D

 54 61  0  0  0  0  0  0  0  0999 V2000
   29.2906  -49.3963    0.0000 C   0  0  0  0  0  0  0  0  0  0  0  0
   29.6250  -50.1474    0.0000 C   0  0  0  0  0  0  0  0  0  0  0  0
   30.4426  -50.2333    0.0000 C   0  0  0  0  0  0  0  0  0  0  0  0
   30.9259  -49.5682    0.0000 C   0  0  0  0  0  0  0  0  0  0  0  0
   30.5915  -48.8171    0.0000 C   0  0  0  0  0  0  0  0  0  0  0  0
   29.7739  -48.7312    0.0000 C   0  0  0  0  0  0  0  0  0  0  0  0
   31.7435  -49.6541    0.0000 O   0  0  0  0  0  0  0  0  0  0  0  0
   32.2268  -48.9890    0.0000 C   0  0  0  0  0  0  0  0  0  0  0  0
   31.8924  -48.2379    0.0000 C   0  0  0  0  0  0  0  0  0  0  0  0
   31.0747  -48.1520    0.0000 C   0  0  0  0  0  0  0  0  0  0  0  0
   33.0444  -49.0749    0.0000 O   0  0  0  0  0  0  0  0  0  0  0  0
   32.3756  -47.5728    0.0000 C   0  0  0  0  0  0  0  0  0  0  0  0
   33.1932  -47.6587    0.0000 N   0  0  0  0  0  0  0  0  0  0  0  0
   32.0412  -46.8217    0.0000 C   0  0  0  0  0  0  0  0  0  0  0  0
   33.6765  -46.9936    0.0000 N   0  0  0  0  0  0  0  0  0  0  0  0
   34.4941  -47.0796    0.0000 C   0  0  0  0  0  0  0  0  0  0  0  0
   34.9052  -47.7915    0.0000 N   0  0  0  0  0  0  0  0  0  0  0  0
   35.7094  -47.6206    0.0000 C   0  0  0  0  0  0  0  0  0  0  0  0
   35.7953  -46.8030    0.0000 C   0  0  0  0  0  0  0  0  0  0  0  0
   35.0442  -46.4686    0.0000 S   0  0  0  0  0  0  0  0  0  0  0  0
   36.5073  -46.3919    0.0000 C   0  0  0  0  0  0  0  0  0  0  0  0
   36.3203  -48.1707    0.0000 C   0  0  0  0  0  0  0  0  0  0  0  0
   37.2193  -46.8030    0.0000 N   0  0  0  0  0  0  0  0  0  0  0  0
   37.9313  -46.3919    0.0000 C   0  0  0  0  0  0  0  0  0  0  0  0
   37.9313  -45.5698    0.0000 N   0  0  0  0  0  0  0  0  0  0  0  0
   37.2193  -45.1587    0.0000 C   0  0  3  0  0  0  0  0  0  0  0  0
   36.5073  -45.5698    0.0000 C   0  0  0  0  0  0  0  0  0  0  0  0
   37.2193  -44.3366    0.0000 C   0  0  0  0  0  0  0  0  0  0  0  0
   37.9313  -43.9255    0.0000 C   0  0  0  0  0  0  0  0  0  0  0  0
   37.9313  -43.1034    0.0000 C   0  0  0  0  0  0  0  0  0  0  0  0
   37.2193  -42.6923    0.0000 C   0  0  0  0  0  0  0  0  0  0  0  0
   36.5073  -43.1034    0.0000 C   0  0  0  0  0  0  0  0  0  0  0  0
   36.5073  -43.9255    0.0000 C   0  0  0  0  0  0  0  0  0  0  0  0
   38.7132  -46.6460    0.0000 N   0  0  0  0  0  0  0  0  0  0  0  0
   39.1964  -45.9808    0.0000 N   0  0  0  0  0  0  0  0  0  0  0  0
   38.7132  -45.3157    0.0000 C   0  0  0  0  0  0  0  0  0  0  0  0
   38.9672  -44.5338    0.0000 C   0  0  0  0  0  0  0  0  0  0  0  0
   38.9672  -47.4279    0.0000 C   0  0  0  0  0  0  0  0  0  0  0  0
   38.4152  -48.0410    0.0000 C   0  0  0  0  0  0  0  0  0  0  0  0
   38.6701  -48.8256    0.0000 C   0  0  0  0  0  0  0  0  0  0  0  0
   39.4771  -48.9971    0.0000 C   0  0  0  0  0  0  0  0  0  0  0  0
   40.0291  -48.3840    0.0000 C   0  0  0  0  0  0  0  0  0  0  0  0
   39.7742  -47.5994    0.0000 C   0  0  0  0  0  0  0  0  0  0  0  0
   38.4171  -43.9229    0.0000 O   0  0  0  0  0  0  0  0  0  0  0  0
   39.7320  -49.7817    0.0000 N   0  3  0  0  0  0  0  0  0  0  0  0
   39.7714  -44.3629    0.0000 N   0  0  0  0  0  0  0  0  0  0  0  0
   40.3215  -44.9739    0.0000 C   0  0  0  0  0  0  0  0  0  0  0  0
   39.1811  -50.3936    0.0000 O   0  0  0  0  0  0  0  0  0  0  0  0
   40.5374  -49.9529    0.0000 O   0  5  0  0  0  0  0  0  0  0  0  0
   40.0671  -45.7570    0.0000 C   0  0  0  0  0  0  0  0  0  0  0  0
   40.6180  -46.3689    0.0000 C   0  0  0  0  0  0  0  0  0  0  0  0
   41.4234  -46.1977    0.0000 C   0  0  0  0  0  0  0  0  0  0  0  0
   41.6779  -45.4146    0.0000 C   0  0  0  0  0  0  0  0  0  0  0  0
   41.1269  -44.8027    0.0000 C   0  0  0  0  0  0  0  0  0  0  0  0
  1  2  2  0  0  0  0
  2  3  1  0  0  0  0
  3  4  2  0  0  0  0
  4  5  1  0  0  0  0
  4  7  1  0  0  0  0
  5  6  2  0  0  0  0
  6  1  1  0  0  0  0
  7  8  1  0  0  0  0
  8  9  1  0  0  0  0
  8 11  2  0  0  0  0
  9 10  2  0  0  0  0
  9 12  1  0  0  0  0
 10  5  1  0  0  0  0
 12 13  2  0  0  0  0
 12 14  1  0  0  0  0
 13 15  1  0  0  0  0
 15 16  1  0  0  0  0
 16 17  2  0  0  0  0
 17 18  1  0  0  0  0
 18 19  2  0  0  0  0
 18 22  1  0  0  0  0
 19 20  1  0  0  0  0
 19 21  1  0  0  0  0
 20 16  1  0  0  0  0
 21 23  1  0  0  0  0
 23 24  2  0  0  0  0
 24 25  1  0  0  0  0
 24 34  1  0  0  0  0
 25 26  1  0  0  0  0
 26 27  1  0  0  0  0
 26 28  1  0  0  0  0
 27 21  2  0  0  0  0
 28 29  2  0  0  0  0
 29 30  1  0  0  0  0
 30 31  2  0  0  0  0
 31 32  1  0  0  0  0
 32 33  2  0  0  0  0
 33 28  1  0  0  0  0
 34 35  1  0  0  0  0
 34 38  1  0  0  0  0
 35 36  2  0  0  0  0
 36 25  1  0  0  0  0
 36 37  1  0  0  0  0
 37 44  2  0  0  0  0
 37 46  1  0  0  0  0
 38 39  2  0  0  0  0
 39 40  1  0  0  0  0
 40 41  2  0  0  0  0
 41 42  1  0  0  0  0
 41 45  1  0  0  0  0
 42 43  2  0  0  0  0
 43 38  1  0  0  0  0
 45 48  2  0  0  0  0
 45 49  1  0  0  0  0
 46 47  1  0  0  0  0
 47 50  2  0  0  0  0
 47 54  1  0  0  0  0
 50 51  1  0  0  0  0
 51 52  2  0  0  0  0
 52 53  1  0  0  0  0
 53 54  2  0  0  0  0
M  CHG  2  45   1  49  -1
M  END
>  <Name>
C3_18e

$$$$
C3_5
 OpenBabel11182102372D

 34 38  0  0  0  0  0  0  0  0999 V2000
    0.7184   -2.8524    0.0000 C   0  0  0  0  0  0  0  0  0  0  0  0
    0.7184   -3.7601    0.0000 C   0  0  0  0  0  0  0  0  0  0  0  0
    1.5044   -4.2139    0.0000 C   0  0  0  0  0  0  0  0  0  0  0  0
    2.2905   -3.7601    0.0000 C   0  0  0  0  0  0  0  0  0  0  0  0
    2.2905   -2.8524    0.0000 C   0  0  0  0  0  0  0  0  0  0  0  0
    1.5044   -2.3986    0.0000 C   0  0  0  0  0  0  0  0  0  0  0  0
    3.0765   -4.2139    0.0000 O   0  0  0  0  0  0  0  0  0  0  0  0
    3.8625   -3.7601    0.0000 C   0  0  0  0  0  0  0  0  0  0  0  0
    3.8625   -2.8524    0.0000 C   0  0  0  0  0  0  0  0  0  0  0  0
    3.0765   -2.3986    0.0000 C   0  0  0  0  0  0  0  0  0  0  0  0
    4.6486   -4.2139    0.0000 O   0  0  0  0  0  0  0  0  0  0  0  0
    4.6486   -2.3986    0.0000 C   0  0  0  0  0  0  0  0  0  0  0  0
    5.4346   -2.8524    0.0000 N   0  0  0  0  0  0  0  0  0  0  0  0
    4.6486   -1.4910    0.0000 C   0  0  0  0  0  0  0  0  0  0  0  0
    6.2207   -2.3986    0.0000 N   0  0  0  0  0  0  0  0  0  0  0  0
    7.0067   -2.8524    0.0000 C   0  0  0  0  0  0  0  0  0  0  0  0
    7.1016   -3.7551    0.0000 N   0  0  0  0  0  0  0  0  0  0  0  0
    7.9894   -3.9438    0.0000 C   0  0  0  0  0  0  0  0  0  0  0  0
    8.4432   -3.1578    0.0000 C   0  0  0  0  0  0  0  0  0  0  0  0
    7.8359   -2.4833    0.0000 S   0  0  0  0  0  0  0  0  0  0  0  0
    9.3459   -3.0629    0.0000 C   0  0  0  0  0  0  0  0  0  0  0  0
    8.3585   -4.7730    0.0000 C   0  0  0  0  0  0  0  0  0  0  0  0
    9.7150   -2.2337    0.0000 N   0  0  0  0  0  0  0  0  0  0  0  0
   10.6177   -2.1389    0.0000 C   0  0  0  0  0  0  0  0  0  0  0  0
   11.1512   -2.8731    0.0000 N   0  0  0  0  0  0  0  0  0  0  0  0
   10.7820   -3.7023    0.0000 C   0  0  3  0  0  0  0  0  0  0  0  0
    9.8794   -3.7972    0.0000 C   0  0  0  0  0  0  0  0  0  0  0  0
   11.3155   -4.4366    0.0000 C   0  0  0  0  0  0  0  0  0  0  0  0
   10.9463   -5.2658    0.0000 C   0  0  0  0  0  0  0  0  0  0  0  0
   11.4798   -6.0001    0.0000 C   0  0  0  0  0  0  0  0  0  0  0  0
   12.3825   -5.9052    0.0000 C   0  0  0  0  0  0  0  0  0  0  0  0
   12.7517   -5.0760    0.0000 C   0  0  0  0  0  0  0  0  0  0  0  0
   12.2182   -4.3417    0.0000 C   0  0  0  0  0  0  0  0  0  0  0  0
   10.9869   -1.3097    0.0000 S   0  0  0  0  0  0  0  0  0  0  0  0
  1  2  2  0  0  0  0
  2  3  1  0  0  0  0
  3  4  2  0  0  0  0
  4  5  1  0  0  0  0
  4  7  1  0  0  0  0
  5  6  2  0  0  0  0
  6  1  1  0  0  0  0
  7  8  1  0  0  0  0
  8  9  1  0  0  0  0
  8 11  2  0  0  0  0
  9 10  2  0  0  0  0
  9 12  1  0  0  0  0
 10  5  1  0  0  0  0
 12 13  2  0  0  0  0
 12 14  1  0  0  0  0
 13 15  1  0  0  0  0
 15 16  1  0  0  0  0
 16 17  2  0  0  0  0
 17 18  1  0  0  0  0
 18 19  2  0  0  0  0
 18 22  1  0  0  0  0
 19 20  1  0  0  0  0
 19 21  1  0  0  0  0
 20 16  1  0  0  0  0
 21 23  1  0  0  0  0
 23 24  1  0  0  0  0
 24 25  1  0  0  0  0
 24 34  2  0  0  0  0
 25 26  1  0  0  0  0
 26 27  1  0  0  0  0
 26 28  1  0  0  0  0
 27 21  2  0  0  0  0
 28 29  2  0  0  0  0
 29 30  1  0  0  0  0
 30 31  2  0  0  0  0
 31 32  1  0  0  0  0
 32 33  2  0  0  0  0
 33 28  1  0  0  0  0
M  END
>  <Name>
C3_5

$$$$
C3_7
 OpenBabel11182102372D

 35 39  0  0  0  0  0  0  0  0999 V2000
    0.8774   -9.7457    0.0000 C   0  0  0  0  0  0  0  0  0  0  0  0
    0.8774  -10.6534    0.0000 C   0  0  0  0  0  0  0  0  0  0  0  0
    1.6634  -11.1072    0.0000 C   0  0  0  0  0  0  0  0  0  0  0  0
    2.4494  -10.6534    0.0000 C   0  0  0  0  0  0  0  0  0  0  0  0
    2.4494   -9.7457    0.0000 C   0  0  0  0  0  0  0  0  0  0  0  0
    1.6634   -9.2919    0.0000 C   0  0  0  0  0  0  0  0  0  0  0  0
    3.2355  -11.1072    0.0000 O   0  0  0  0  0  0  0  0  0  0  0  0
    4.0215  -10.6534    0.0000 C   0  0  0  0  0  0  0  0  0  0  0  0
    4.0215   -9.7457    0.0000 C   0  0  0  0  0  0  0  0  0  0  0  0
    3.2355   -9.2919    0.0000 C   0  0  0  0  0  0  0  0  0  0  0  0
    4.8075  -11.1072    0.0000 O   0  0  0  0  0  0  0  0  0  0  0  0
    4.8075   -9.2919    0.0000 C   0  0  0  0  0  0  0  0  0  0  0  0
    5.5936   -9.7457    0.0000 N   0  0  0  0  0  0  0  0  0  0  0  0
    4.8075   -8.3843    0.0000 C   0  0  0  0  0  0  0  0  0  0  0  0
    6.3796   -9.2919    0.0000 N   0  0  0  0  0  0  0  0  0  0  0  0
    7.1657   -9.7457    0.0000 C   0  0  0  0  0  0  0  0  0  0  0  0
    7.2605  -10.6484    0.0000 N   0  0  0  0  0  0  0  0  0  0  0  0
    8.1483  -10.8371    0.0000 C   0  0  0  0  0  0  0  0  0  0  0  0
    8.6022  -10.0511    0.0000 C   0  0  0  0  0  0  0  0  0  0  0  0
    7.9948   -9.3766    0.0000 S   0  0  0  0  0  0  0  0  0  0  0  0
    9.5048   -9.9562    0.0000 C   0  0  0  0  0  0  0  0  0  0  0  0
    8.5175  -11.6663    0.0000 C   0  0  0  0  0  0  0  0  0  0  0  0
    9.8740   -9.1270    0.0000 N   0  0  0  0  0  0  0  0  0  0  0  0
   10.7767   -9.0321    0.0000 C   0  0  0  0  0  0  0  0  0  0  0  0
   11.3102   -9.7664    0.0000 N   0  0  0  0  0  0  0  0  0  0  0  0
   10.9410  -10.5956    0.0000 C   0  0  3  0  0  0  0  0  0  0  0  0
   10.0383  -10.6905    0.0000 C   0  0  0  0  0  0  0  0  0  0  0  0
   11.4745  -11.3299    0.0000 C   0  0  0  0  0  0  0  0  0  0  0  0
   11.1053  -12.1591    0.0000 C   0  0  0  0  0  0  0  0  0  0  0  0
   11.6388  -12.8934    0.0000 C   0  0  0  0  0  0  0  0  0  0  0  0
   12.5415  -12.7985    0.0000 C   0  0  0  0  0  0  0  0  0  0  0  0
   12.9106  -11.9693    0.0000 C   0  0  0  0  0  0  0  0  0  0  0  0
   12.3771  -11.2350    0.0000 C   0  0  0  0  0  0  0  0  0  0  0  0
   11.1458   -8.2030    0.0000 S   0  0  0  0  0  0  0  0  0  0  0  0
   12.2128   -9.6716    0.0000 C   0  0  0  0  0  0  0  0  0  0  0  0
  1  2  2  0  0  0  0
  2  3  1  0  0  0  0
  3  4  2  0  0  0  0
  4  5  1  0  0  0  0
  4  7  1  0  0  0  0
  5  6  2  0  0  0  0
  6  1  1  0  0  0  0
  7  8  1  0  0  0  0
  8  9  1  0  0  0  0
  8 11  2  0  0  0  0
  9 10  2  0  0  0  0
  9 12  1  0  0  0  0
 10  5  1  0  0  0  0
 12 13  2  0  0  0  0
 12 14  1  0  0  0  0
 13 15  1  0  0  0  0
 15 16  1  0  0  0  0
 16 17  2  0  0  0  0
 17 18  1  0  0  0  0
 18 19  2  0  0  0  0
 18 22  1  0  0  0  0
 19 20  1  0  0  0  0
 19 21  1  0  0  0  0
 20 16  1  0  0  0  0
 21 23  1  0  0  0  0
 23 24  1  0  0  0  0
 24 25  1  0  0  0  0
 24 34  2  0  0  0  0
 25 26  1  0  0  0  0
 25 35  1  0  0  0  0
 26 27  1  0  0  0  0
 26 28  1  0  0  0  0
 27 21  2  0  0  0  0
 28 29  2  0  0  0  0
 29 30  1  0  0  0  0
 30 31  2  0  0  0  0
 31 32  1  0  0  0  0
 32 33  2  0  0  0  0
 33 28  1  0  0  0  0
M  END
>  <Name>
C3_7

$$$$
C3_9
 OpenBabel11182102372D

 35 39  0  0  0  0  0  0  0  0999 V2000
    1.1070  -16.0181    0.0000 C   0  0  0  0  0  0  0  0  0  0  0  0
    1.1070  -16.9257    0.0000 C   0  0  0  0  0  0  0  0  0  0  0  0
    1.8931  -17.3795    0.0000 C   0  0  0  0  0  0  0  0  0  0  0  0
    2.6791  -16.9257    0.0000 C   0  0  0  0  0  0  0  0  0  0  0  0
    2.6791  -16.0181    0.0000 C   0  0  0  0  0  0  0  0  0  0  0  0
    1.8931  -15.5643    0.0000 C   0  0  0  0  0  0  0  0  0  0  0  0
    3.4651  -17.3795    0.0000 O   0  0  0  0  0  0  0  0  0  0  0  0
    4.2512  -16.9257    0.0000 C   0  0  0  0  0  0  0  0  0  0  0  0
    4.2512  -16.0181    0.0000 C   0  0  0  0  0  0  0  0  0  0  0  0
    3.4651  -15.5643    0.0000 C   0  0  0  0  0  0  0  0  0  0  0  0
    5.0372  -17.3795    0.0000 O   0  0  0  0  0  0  0  0  0  0  0  0
    5.0372  -15.5643    0.0000 C   0  0  0  0  0  0  0  0  0  0  0  0
    5.8232  -16.0181    0.0000 N   0  0  0  0  0  0  0  0  0  0  0  0
    5.0372  -14.6566    0.0000 C   0  0  0  0  0  0  0  0  0  0  0  0
    6.6093  -15.5643    0.0000 N   0  0  0  0  0  0  0  0  0  0  0  0
    7.3953  -16.0181    0.0000 C   0  0  0  0  0  0  0  0  0  0  0  0
    7.4902  -16.9207    0.0000 N   0  0  0  0  0  0  0  0  0  0  0  0
    8.3780  -17.1094    0.0000 C   0  0  0  0  0  0  0  0  0  0  0  0
    8.8318  -16.3234    0.0000 C   0  0  0  0  0  0  0  0  0  0  0  0
    8.2245  -15.6489    0.0000 S   0  0  0  0  0  0  0  0  0  0  0  0
    9.7345  -16.2285    0.0000 C   0  0  0  0  0  0  0  0  0  0  0  0
   10.3418  -16.9030    0.0000 C   0  0  0  0  0  0  0  0  0  0  0  0
    8.7472  -17.9386    0.0000 C   0  0  0  0  0  0  0  0  0  0  0  0
   11.1710  -16.5339    0.0000 C   0  0  0  0  0  0  0  0  0  0  0  0
   11.9570  -16.9877    0.0000 C   0  0  0  0  0  0  0  0  0  0  0  0
   11.9570  -17.8953    0.0000 C   0  0  0  0  0  0  0  0  0  0  0  0
   12.7430  -18.3491    0.0000 C   0  0  0  0  0  0  0  0  0  0  0  0
   13.5291  -17.8953    0.0000 C   0  0  0  0  0  0  0  0  0  0  0  0
   13.5291  -16.9877    0.0000 C   0  0  0  0  0  0  0  0  0  0  0  0
   12.7430  -16.5339    0.0000 C   0  0  0  0  0  0  0  0  0  0  0  0
   10.1883  -15.4425    0.0000 N   0  0  0  0  0  0  0  0  0  0  0  0
   11.0761  -15.6312    0.0000 N   0  0  0  0  0  0  0  0  0  0  0  0
   11.7506  -15.0239    0.0000 C   0  0  0  0  0  0  0  0  0  0  0  0
   11.5619  -14.1361    0.0000 N   0  0  0  0  0  0  0  0  0  0  0  0
   12.6138  -15.3044    0.0000 S   0  0  0  0  0  0  0  0  0  0  0  0
  1  2  2  0  0  0  0
  2  3  1  0  0  0  0
  3  4  2  0  0  0  0
  4  5  1  0  0  0  0
  4  7  1  0  0  0  0
  5  6  2  0  0  0  0
  6  1  1  0  0  0  0
  7  8  1  0  0  0  0
  8  9  1  0  0  0  0
  8 11  2  0  0  0  0
  9 10  2  0  0  0  0
  9 12  1  0  0  0  0
 10  5  1  0  0  0  0
 12 13  2  0  0  0  0
 12 14  1  0  0  0  0
 13 15  1  0  0  0  0
 15 16  1  0  0  0  0
 16 17  2  0  0  0  0
 17 18  1  0  0  0  0
 18 19  2  0  0  0  0
 18 23  1  0  0  0  0
 19 20  1  0  0  0  0
 19 21  1  0  0  0  0
 20 16  1  0  0  0  0
 21 22  1  0  0  0  0
 22 24  2  0  0  0  0
 24 25  1  0  0  0  0
 24 32  1  0  0  0  0
 25 26  2  0  0  0  0
 26 27  1  0  0  0  0
 27 28  2  0  0  0  0
 28 29  1  0  0  0  0
 29 30  2  0  0  0  0
 30 25  1  0  0  0  0
 31 21  2  0  0  0  0
 31 32  1  0  0  0  0
 32 33  1  0  0  0  0
 33 34  1  0  0  0  0
 33 35  2  0  0  0  0
M  END
>  <Name>
C3_9

$$$$
